TUR117_glm/Loads_TUR117.glm
//**Loads_TUR117:


object load {
	 parent 500-42684;
	 name LOAD_389-1196856-0;
	 phases AN;
	 base_power_A 6575.246625;
	 base_power_B 0.000000;
	 base_power_C 0.000000;
	 power_pf_A 0.877313;
	 current_pf_A 0.877313;
	 impedance_pf_A 0.877313;
	 power_pf_B 0.000000;
	 current_pf_B 0.000000;
	 impedance_pf_B 0.000000;
	 power_pf_C 0.000000;
	 current_pf_C 0.000000;
	 impedance_pf_C 0.000000;
	 power_fraction_A 0.50;
	 current_fraction_A 0.10;
	 impedance_fraction_A 0.40;
	 power_fraction_B 0.50;
	 current_fraction_B 0.10;
	 impedance_fraction_B 0.40;
	 power_fraction_C 0.50;
	 current_fraction_C 0.10;
	 impedance_fraction_C 0.40;
	 nominal_voltage 7970.00;
}


object load {
	 parent 500-42638;
	 name LOAD_389-1197080-0;
	 phases AN;
	 base_power_A 2141.795174;
	 base_power_B 0.000000;
	 base_power_C 0.000000;
	 power_pf_A 0.877313;
	 current_pf_A 0.877313;
	 impedance_pf_A 0.877313;
	 power_pf_B 0.000000;
	 current_pf_B 0.000000;
	 impedance_pf_B 0.000000;
	 power_pf_C 0.000000;
	 current_pf_C 0.000000;
	 impedance_pf_C 0.000000;
	 power_fraction_A 0.50;
	 current_fraction_A 0.10;
	 impedance_fraction_A 0.40;
	 power_fraction_B 0.50;
	 current_fraction_B 0.10;
	 impedance_fraction_B 0.40;
	 power_fraction_C 0.50;
	 current_fraction_C 0.10;
	 impedance_fraction_C 0.40;
	 nominal_voltage 7970.00;
}


object load {
	 parent 403-480162;
	 name LOAD_389-1197084-0;
	 phases ABCN;
	 base_power_A 748.870301;
	 base_power_B 0.000000;
	 base_power_C 0.000000;
	 power_pf_A 0.877313;
	 current_pf_A 0.877313;
	 impedance_pf_A 0.877313;
	 power_pf_B 0.000000;
	 current_pf_B 0.000000;
	 impedance_pf_B 0.000000;
	 power_pf_C 0.000000;
	 current_pf_C 0.000000;
	 impedance_pf_C 0.000000;
	 power_fraction_A 0.50;
	 current_fraction_A 0.10;
	 impedance_fraction_A 0.40;
	 power_fraction_B 0.50;
	 current_fraction_B 0.10;
	 impedance_fraction_B 0.40;
	 power_fraction_C 0.50;
	 current_fraction_C 0.10;
	 impedance_fraction_C 0.40;
	 nominal_voltage 7970.00;
}


object load {
	 parent 500-42687;
	 name LOAD_389-1197384-0;
	 phases ABCN;
	 base_power_A 10638.542600;
	 base_power_B 10638.542600;
	 base_power_C 10638.542600;
	 power_pf_A 0.877313;
	 current_pf_A 0.877313;
	 impedance_pf_A 0.877313;
	 power_pf_B 0.877313;
	 current_pf_B 0.877313;
	 impedance_pf_B 0.877313;
	 power_pf_C 0.877313;
	 current_pf_C 0.877313;
	 impedance_pf_C 0.877313;
	 power_fraction_A 0.50;
	 current_fraction_A 0.10;
	 impedance_fraction_A 0.40;
	 power_fraction_B 0.50;
	 current_fraction_B 0.10;
	 impedance_fraction_B 0.40;
	 power_fraction_C 0.50;
	 current_fraction_C 0.10;
	 impedance_fraction_C 0.40;
	 nominal_voltage 7970.00;
}


object load {
	 parent 500-42682;
	 name LOAD_389-1197386-0;
	 phases ACN;
	 base_power_A 11327.635953;
	 base_power_B 0.000000;
	 base_power_C 9264.193752;
	 power_pf_A 0.877313;
	 current_pf_A 0.877313;
	 impedance_pf_A 0.877313;
	 power_pf_B 0.000000;
	 current_pf_B 0.000000;
	 impedance_pf_B 0.000000;
	 power_pf_C 0.877313;
	 current_pf_C 0.877313;
	 impedance_pf_C 0.877313;
	 power_fraction_A 0.50;
	 current_fraction_A 0.10;
	 impedance_fraction_A 0.40;
	 power_fraction_B 0.50;
	 current_fraction_B 0.10;
	 impedance_fraction_B 0.40;
	 power_fraction_C 0.50;
	 current_fraction_C 0.10;
	 impedance_fraction_C 0.40;
	 nominal_voltage 7970.00;
}


object load {
	 parent 500-43341;
	 name LOAD_389-1197389-0;
	 phases ABCN;
	 base_power_A 0.000000;
	 base_power_B 0.000000;
	 base_power_C 920.057235;
	 power_pf_A 0.000000;
	 current_pf_A 0.000000;
	 impedance_pf_A 0.000000;
	 power_pf_B 0.000000;
	 current_pf_B 0.000000;
	 impedance_pf_B 0.000000;
	 power_pf_C 0.877313;
	 current_pf_C 0.877313;
	 impedance_pf_C 0.877313;
	 power_fraction_A 0.50;
	 current_fraction_A 0.10;
	 impedance_fraction_A 0.40;
	 power_fraction_B 0.50;
	 current_fraction_B 0.10;
	 impedance_fraction_B 0.40;
	 power_fraction_C 0.50;
	 current_fraction_C 0.10;
	 impedance_fraction_C 0.40;
	 nominal_voltage 7970.00;
}


object load {
	 parent 402-1397702;
	 name LOAD_389-1197392-0;
	 phases AN;
	 base_power_A 5246.444316;
	 base_power_B 0.000000;
	 base_power_C 0.000000;
	 power_pf_A 0.877313;
	 current_pf_A 0.877313;
	 impedance_pf_A 0.877313;
	 power_pf_B 0.000000;
	 current_pf_B 0.000000;
	 impedance_pf_B 0.000000;
	 power_pf_C 0.000000;
	 current_pf_C 0.000000;
	 impedance_pf_C 0.000000;
	 power_fraction_A 0.50;
	 current_fraction_A 0.10;
	 impedance_fraction_A 0.40;
	 power_fraction_B 0.50;
	 current_fraction_B 0.10;
	 impedance_fraction_B 0.40;
	 power_fraction_C 0.50;
	 current_fraction_C 0.10;
	 impedance_fraction_C 0.40;
	 nominal_voltage 7970.00;
}


object load {
	 parent 393-73970;
	 name LOAD_389-1197721-0;
	 phases ABCN;
	 base_power_A 5968.983745;
	 base_power_B 0.000000;
	 base_power_C 0.000000;
	 power_pf_A 0.877313;
	 current_pf_A 0.877313;
	 impedance_pf_A 0.877313;
	 power_pf_B 0.000000;
	 current_pf_B 0.000000;
	 impedance_pf_B 0.000000;
	 power_pf_C 0.000000;
	 current_pf_C 0.000000;
	 impedance_pf_C 0.000000;
	 power_fraction_A 0.50;
	 current_fraction_A 0.10;
	 impedance_fraction_A 0.40;
	 power_fraction_B 0.50;
	 current_fraction_B 0.10;
	 impedance_fraction_B 0.40;
	 power_fraction_C 0.50;
	 current_fraction_C 0.10;
	 impedance_fraction_C 0.40;
	 nominal_voltage 7970.00;
}


object load {
	 parent 500-643290;
	 name LOAD_389-1197721-1;
	 phases ABCN;
	 base_power_A 7866.765001;
	 base_power_B 0.000000;
	 base_power_C 0.000000;
	 power_pf_A 0.877313;
	 current_pf_A 0.877313;
	 impedance_pf_A 0.877313;
	 power_pf_B 0.000000;
	 current_pf_B 0.000000;
	 impedance_pf_B 0.000000;
	 power_pf_C 0.000000;
	 current_pf_C 0.000000;
	 impedance_pf_C 0.000000;
	 power_fraction_A 0.50;
	 current_fraction_A 0.10;
	 impedance_fraction_A 0.40;
	 power_fraction_B 0.50;
	 current_fraction_B 0.10;
	 impedance_fraction_B 0.40;
	 power_fraction_C 0.50;
	 current_fraction_C 0.10;
	 impedance_fraction_C 0.40;
	 nominal_voltage 7970.00;
}


object load {
	 parent 500-83225;
	 name LOAD_389-2160789-0;
	 phases ABCN;
	 base_power_A 1455.572521;
	 base_power_B 1455.572521;
	 base_power_C 1455.572521;
	 power_pf_A 0.877313;
	 current_pf_A 0.877313;
	 impedance_pf_A 0.877313;
	 power_pf_B 0.877313;
	 current_pf_B 0.877313;
	 impedance_pf_B 0.877313;
	 power_pf_C 0.877313;
	 current_pf_C 0.877313;
	 impedance_pf_C 0.877313;
	 power_fraction_A 0.50;
	 current_fraction_A 0.10;
	 impedance_fraction_A 0.40;
	 power_fraction_B 0.50;
	 current_fraction_B 0.10;
	 impedance_fraction_B 0.40;
	 power_fraction_C 0.50;
	 current_fraction_C 0.10;
	 impedance_fraction_C 0.40;
	 nominal_voltage 7970.00;
}


object load {
	 parent 500-1300669;
	 name LOAD_389-2985217-1;
	 phases ABCN;
	 base_power_A 0.000000;
	 base_power_B 3542.771635;
	 base_power_C 0.000000;
	 power_pf_A 0.000000;
	 current_pf_A 0.000000;
	 impedance_pf_A 0.000000;
	 power_pf_B 0.877313;
	 current_pf_B 0.877313;
	 impedance_pf_B 0.877313;
	 power_pf_C 0.000000;
	 current_pf_C 0.000000;
	 impedance_pf_C 0.000000;
	 power_fraction_A 0.50;
	 current_fraction_A 0.10;
	 impedance_fraction_A 0.40;
	 power_fraction_B 0.50;
	 current_fraction_B 0.10;
	 impedance_fraction_B 0.40;
	 power_fraction_C 0.50;
	 current_fraction_C 0.10;
	 impedance_fraction_C 0.40;
	 nominal_voltage 7970.00;
}


object load {
	 parent 392-82614;
	 name LOAD_389-2985217-4;
	 phases ABCN;
	 base_power_A 0.000000;
	 base_power_B 0.000000;
	 base_power_C 0.000000;
	 power_pf_A 0.000000;
	 current_pf_A 0.000000;
	 impedance_pf_A 0.000000;
	 power_pf_B 0.000000;
	 current_pf_B 0.000000;
	 impedance_pf_B 0.000000;
	 power_pf_C 0.000000;
	 current_pf_C 0.000000;
	 impedance_pf_C 0.000000;
	 power_fraction_A 0.50;
	 current_fraction_A 0.10;
	 impedance_fraction_A 0.40;
	 power_fraction_B 0.50;
	 current_fraction_B 0.10;
	 impedance_fraction_B 0.40;
	 power_fraction_C 0.50;
	 current_fraction_C 0.10;
	 impedance_fraction_C 0.40;
	 nominal_voltage 7970.00;
}


object load {
	 parent 500-72683;
	 name LOAD_389-2993393-0;
	 phases ABCN;
	 base_power_A 0.000000;
	 base_power_B 0.000000;
	 base_power_C 0.000000;
	 power_pf_A 0.000000;
	 current_pf_A 0.000000;
	 impedance_pf_A 0.000000;
	 power_pf_B 0.000000;
	 current_pf_B 0.000000;
	 impedance_pf_B 0.000000;
	 power_pf_C 0.000000;
	 current_pf_C 0.000000;
	 impedance_pf_C 0.000000;
	 power_fraction_A 0.50;
	 current_fraction_A 0.10;
	 impedance_fraction_A 0.40;
	 power_fraction_B 0.50;
	 current_fraction_B 0.10;
	 impedance_fraction_B 0.40;
	 power_fraction_C 0.50;
	 current_fraction_C 0.10;
	 impedance_fraction_C 0.40;
	 nominal_voltage 7970.00;
}


object load {
	 parent 500-2854641;
	 name LOAD_389-2993393-1;
	 phases ABCN;
	 base_power_A 0.000000;
	 base_power_B 5784.377496;
	 base_power_C 0.000000;
	 power_pf_A 0.000000;
	 current_pf_A 0.000000;
	 impedance_pf_A 0.000000;
	 power_pf_B 0.877313;
	 current_pf_B 0.877313;
	 impedance_pf_B 0.877313;
	 power_pf_C 0.000000;
	 current_pf_C 0.000000;
	 impedance_pf_C 0.000000;
	 power_fraction_A 0.50;
	 current_fraction_A 0.10;
	 impedance_fraction_A 0.40;
	 power_fraction_B 0.50;
	 current_fraction_B 0.10;
	 impedance_fraction_B 0.40;
	 power_fraction_C 0.50;
	 current_fraction_C 0.10;
	 impedance_fraction_C 0.40;
	 nominal_voltage 7970.00;
}


object load {
	 parent 500-72677;
	 name LOAD_389-2993393-2;
	 phases ABCN;
	 base_power_A 9538.158789;
	 base_power_B 0.000000;
	 base_power_C 0.000000;
	 power_pf_A 0.877313;
	 current_pf_A 0.877313;
	 impedance_pf_A 0.877313;
	 power_pf_B 0.000000;
	 current_pf_B 0.000000;
	 impedance_pf_B 0.000000;
	 power_pf_C 0.000000;
	 current_pf_C 0.000000;
	 impedance_pf_C 0.000000;
	 power_fraction_A 0.50;
	 current_fraction_A 0.10;
	 impedance_fraction_A 0.40;
	 power_fraction_B 0.50;
	 current_fraction_B 0.10;
	 impedance_fraction_B 0.40;
	 power_fraction_C 0.50;
	 current_fraction_C 0.10;
	 impedance_fraction_C 0.40;
	 nominal_voltage 7970.00;
}


object load {
	 parent 500-42639;
	 name LOAD_389-554121-0;
	 phases AN;
	 base_power_A 2139.691605;
	 base_power_B 0.000000;
	 base_power_C 0.000000;
	 power_pf_A 0.877313;
	 current_pf_A 0.877313;
	 impedance_pf_A 0.877313;
	 power_pf_B 0.000000;
	 current_pf_B 0.000000;
	 impedance_pf_B 0.000000;
	 power_pf_C 0.000000;
	 current_pf_C 0.000000;
	 impedance_pf_C 0.000000;
	 power_fraction_A 0.50;
	 current_fraction_A 0.10;
	 impedance_fraction_A 0.40;
	 power_fraction_B 0.50;
	 current_fraction_B 0.10;
	 impedance_fraction_B 0.40;
	 power_fraction_C 0.50;
	 current_fraction_C 0.10;
	 impedance_fraction_C 0.40;
	 nominal_voltage 7970.00;
}


object load {
	 parent 402-1397704;
	 name LOAD_389-554130-0;
	 phases ABCN;
	 base_power_A 8280.007359;
	 base_power_B 0.000000;
	 base_power_C 0.000000;
	 power_pf_A 0.877313;
	 current_pf_A 0.877313;
	 impedance_pf_A 0.877313;
	 power_pf_B 0.000000;
	 current_pf_B 0.000000;
	 impedance_pf_B 0.000000;
	 power_pf_C 0.000000;
	 current_pf_C 0.000000;
	 impedance_pf_C 0.000000;
	 power_fraction_A 0.50;
	 current_fraction_A 0.10;
	 impedance_fraction_A 0.40;
	 power_fraction_B 0.50;
	 current_fraction_B 0.10;
	 impedance_fraction_B 0.40;
	 power_fraction_C 0.50;
	 current_fraction_C 0.10;
	 impedance_fraction_C 0.40;
	 nominal_voltage 7970.00;
}


object load {
	 parent 500-42678;
	 name LOAD_389-554149-0;
	 phases AN;
	 base_power_A 8023.081883;
	 base_power_B 0.000000;
	 base_power_C 0.000000;
	 power_pf_A 0.877313;
	 current_pf_A 0.877313;
	 impedance_pf_A 0.877313;
	 power_pf_B 0.000000;
	 current_pf_B 0.000000;
	 impedance_pf_B 0.000000;
	 power_pf_C 0.000000;
	 current_pf_C 0.000000;
	 impedance_pf_C 0.000000;
	 power_fraction_A 0.50;
	 current_fraction_A 0.10;
	 impedance_fraction_A 0.40;
	 power_fraction_B 0.50;
	 current_fraction_B 0.10;
	 impedance_fraction_B 0.40;
	 power_fraction_C 0.50;
	 current_fraction_C 0.10;
	 impedance_fraction_C 0.40;
	 nominal_voltage 7970.00;
}


object load {
	 parent 500-42686;
	 name LOAD_389-554155-0;
	 phases AN;
	 base_power_A 15671.003248;
	 base_power_B 0.000000;
	 base_power_C 0.000000;
	 power_pf_A 0.877313;
	 current_pf_A 0.877313;
	 impedance_pf_A 0.877313;
	 power_pf_B 0.000000;
	 current_pf_B 0.000000;
	 impedance_pf_B 0.000000;
	 power_pf_C 0.000000;
	 current_pf_C 0.000000;
	 impedance_pf_C 0.000000;
	 power_fraction_A 0.50;
	 current_fraction_A 0.10;
	 impedance_fraction_A 0.40;
	 power_fraction_B 0.50;
	 current_fraction_B 0.10;
	 impedance_fraction_B 0.40;
	 power_fraction_C 0.50;
	 current_fraction_C 0.10;
	 impedance_fraction_C 0.40;
	 nominal_voltage 7970.00;
}


object load {
	 parent 500-42681;
	 name LOAD_389-554158-0;
	 phases ABCN;
	 base_power_A 0.000000;
	 base_power_B 3812.391057;
	 base_power_C 0.000000;
	 power_pf_A 0.000000;
	 current_pf_A 0.000000;
	 impedance_pf_A 0.000000;
	 power_pf_B 0.877313;
	 current_pf_B 0.877313;
	 impedance_pf_B 0.877313;
	 power_pf_C 0.000000;
	 current_pf_C 0.000000;
	 impedance_pf_C 0.000000;
	 power_fraction_A 0.50;
	 current_fraction_A 0.10;
	 impedance_fraction_A 0.40;
	 power_fraction_B 0.50;
	 current_fraction_B 0.10;
	 impedance_fraction_B 0.40;
	 power_fraction_C 0.50;
	 current_fraction_C 0.10;
	 impedance_fraction_C 0.40;
	 nominal_voltage 7970.00;
}


object load {
	 parent 500-42692;
	 name LOAD_389-554167-0;
	 phases ABCN;
	 base_power_A 7870.446245;
	 base_power_B 6626.965390;
	 base_power_C 7041.459008;
	 power_pf_A 0.877313;
	 current_pf_A 0.877313;
	 impedance_pf_A 0.877313;
	 power_pf_B 0.877313;
	 current_pf_B 0.877313;
	 impedance_pf_B 0.877313;
	 power_pf_C 0.877313;
	 current_pf_C 0.877313;
	 impedance_pf_C 0.877313;
	 power_fraction_A 0.50;
	 current_fraction_A 0.10;
	 impedance_fraction_A 0.40;
	 power_fraction_B 0.50;
	 current_fraction_B 0.10;
	 impedance_fraction_B 0.40;
	 power_fraction_C 0.50;
	 current_fraction_C 0.10;
	 impedance_fraction_C 0.40;
	 nominal_voltage 7970.00;
}


object load {
	 parent 500-43338;
	 name LOAD_389-554462-0;
	 phases BN;
	 base_power_A 0.000000;
	 base_power_B 4433.088768;
	 base_power_C 0.000000;
	 power_pf_A 0.000000;
	 current_pf_A 0.000000;
	 impedance_pf_A 0.000000;
	 power_pf_B 0.877313;
	 current_pf_B 0.877313;
	 impedance_pf_B 0.877313;
	 power_pf_C 0.000000;
	 current_pf_C 0.000000;
	 impedance_pf_C 0.000000;
	 power_fraction_A 0.50;
	 current_fraction_A 0.10;
	 impedance_fraction_A 0.40;
	 power_fraction_B 0.50;
	 current_fraction_B 0.10;
	 impedance_fraction_B 0.40;
	 power_fraction_C 0.50;
	 current_fraction_C 0.10;
	 impedance_fraction_C 0.40;
	 nominal_voltage 7970.00;
}


object load {
	 parent 500-42685;
	 name LOAD_389-554462-1;
	 phases BN;
	 base_power_A 0.000000;
	 base_power_B 5477.691751;
	 base_power_C 0.000000;
	 power_pf_A 0.000000;
	 current_pf_A 0.000000;
	 impedance_pf_A 0.000000;
	 power_pf_B 0.877313;
	 current_pf_B 0.877313;
	 impedance_pf_B 0.877313;
	 power_pf_C 0.000000;
	 current_pf_C 0.000000;
	 impedance_pf_C 0.000000;
	 power_fraction_A 0.50;
	 current_fraction_A 0.10;
	 impedance_fraction_A 0.40;
	 power_fraction_B 0.50;
	 current_fraction_B 0.10;
	 impedance_fraction_B 0.40;
	 power_fraction_C 0.50;
	 current_fraction_C 0.10;
	 impedance_fraction_C 0.40;
	 nominal_voltage 7970.00;
}


object load {
	 parent 500-2843159;
	 name LOAD_389-3054115-1;
	 phases ABCN;
	 base_power_A 0.000000;
	 base_power_B 0.000000;
	 base_power_C 0.000000;
	 power_pf_A 0.000000;
	 current_pf_A 0.000000;
	 impedance_pf_A 0.000000;
	 power_pf_B 0.000000;
	 current_pf_B 0.000000;
	 impedance_pf_B 0.000000;
	 power_pf_C 0.000000;
	 current_pf_C 0.000000;
	 impedance_pf_C 0.000000;
	 power_fraction_A 0.50;
	 current_fraction_A 0.10;
	 impedance_fraction_A 0.40;
	 power_fraction_B 0.50;
	 current_fraction_B 0.10;
	 impedance_fraction_B 0.40;
	 power_fraction_C 0.50;
	 current_fraction_C 0.10;
	 impedance_fraction_C 0.40;
	 nominal_voltage 7970.00;
}


object load {
	 parent 500-72681;
	 name LOAD_389-3054115-2;
	 phases ABCN;
	 base_power_A 1355.955265;
	 base_power_B 1355.955265;
	 base_power_C 1355.955265;
	 power_pf_A 0.877313;
	 current_pf_A 0.877313;
	 impedance_pf_A 0.877313;
	 power_pf_B 0.877313;
	 current_pf_B 0.877313;
	 impedance_pf_B 0.877313;
	 power_pf_C 0.877313;
	 current_pf_C 0.877313;
	 impedance_pf_C 0.877313;
	 power_fraction_A 0.50;
	 current_fraction_A 0.10;
	 impedance_fraction_A 0.40;
	 power_fraction_B 0.50;
	 current_fraction_B 0.10;
	 impedance_fraction_B 0.40;
	 power_fraction_C 0.50;
	 current_fraction_C 0.10;
	 impedance_fraction_C 0.40;
	 nominal_voltage 7970.00;
}


object load {
	 parent 392-93494;
	 name LOAD_389-3054115-3;
	 phases ABCN;
	 base_power_A 0.000000;
	 base_power_B 0.000000;
	 base_power_C 0.000000;
	 power_pf_A 0.000000;
	 current_pf_A 0.000000;
	 impedance_pf_A 0.000000;
	 power_pf_B 0.000000;
	 current_pf_B 0.000000;
	 impedance_pf_B 0.000000;
	 power_pf_C 0.000000;
	 current_pf_C 0.000000;
	 impedance_pf_C 0.000000;
	 power_fraction_A 0.50;
	 current_fraction_A 0.10;
	 impedance_fraction_A 0.40;
	 power_fraction_B 0.50;
	 current_fraction_B 0.10;
	 impedance_fraction_B 0.40;
	 power_fraction_C 0.50;
	 current_fraction_C 0.10;
	 impedance_fraction_C 0.40;
	 nominal_voltage 7970.00;
}


object load {
	 parent 391-280638;
	 name LOAD_394-494640-0;
	 phases AN;
	 base_power_A 1207.496540;
	 base_power_B 0.000000;
	 base_power_C 0.000000;
	 power_pf_A 0.877313;
	 current_pf_A 0.877313;
	 impedance_pf_A 0.877313;
	 power_pf_B 0.000000;
	 current_pf_B 0.000000;
	 impedance_pf_B 0.000000;
	 power_pf_C 0.000000;
	 current_pf_C 0.000000;
	 impedance_pf_C 0.000000;
	 power_fraction_A 0.50;
	 current_fraction_A 0.10;
	 impedance_fraction_A 0.40;
	 power_fraction_B 0.50;
	 current_fraction_B 0.10;
	 impedance_fraction_B 0.40;
	 power_fraction_C 0.50;
	 current_fraction_C 0.10;
	 impedance_fraction_C 0.40;
	 nominal_voltage 7970.00;
}


object load {
	 parent 391-280636;
	 name LOAD_394-494642-0;
	 phases BN;
	 base_power_A 0.000000;
	 base_power_B 1207.496540;
	 base_power_C 0.000000;
	 power_pf_A 0.000000;
	 current_pf_A 0.000000;
	 impedance_pf_A 0.000000;
	 power_pf_B 0.877313;
	 current_pf_B 0.877313;
	 impedance_pf_B 0.877313;
	 power_pf_C 0.000000;
	 current_pf_C 0.000000;
	 impedance_pf_C 0.000000;
	 power_fraction_A 0.50;
	 current_fraction_A 0.10;
	 impedance_fraction_A 0.40;
	 power_fraction_B 0.50;
	 current_fraction_B 0.10;
	 impedance_fraction_B 0.40;
	 power_fraction_C 0.50;
	 current_fraction_C 0.10;
	 impedance_fraction_C 0.40;
	 nominal_voltage 7970.00;
}


object load {
	 parent 391-280637;
	 name LOAD_394-494644-0;
	 phases CN;
	 base_power_A 0.000000;
	 base_power_B 0.000000;
	 base_power_C 1207.496540;
	 power_pf_A 0.000000;
	 current_pf_A 0.000000;
	 impedance_pf_A 0.000000;
	 power_pf_B 0.000000;
	 current_pf_B 0.000000;
	 impedance_pf_B 0.000000;
	 power_pf_C 0.877313;
	 current_pf_C 0.877313;
	 impedance_pf_C 0.877313;
	 power_fraction_A 0.50;
	 current_fraction_A 0.10;
	 impedance_fraction_A 0.40;
	 power_fraction_B 0.50;
	 current_fraction_B 0.10;
	 impedance_fraction_B 0.40;
	 power_fraction_C 0.50;
	 current_fraction_C 0.10;
	 impedance_fraction_C 0.40;
	 nominal_voltage 7970.00;
}


object load {
	 parent 391-280381;
	 name LOAD_394-494658-0;
	 phases CN;
	 base_power_A 0.000000;
	 base_power_B 0.000000;
	 base_power_C 0.000000;
	 power_pf_A 0.000000;
	 current_pf_A 0.000000;
	 impedance_pf_A 0.000000;
	 power_pf_B 0.000000;
	 current_pf_B 0.000000;
	 impedance_pf_B 0.000000;
	 power_pf_C 0.000000;
	 current_pf_C 0.000000;
	 impedance_pf_C 0.000000;
	 power_fraction_A 0.50;
	 current_fraction_A 0.10;
	 impedance_fraction_A 0.40;
	 power_fraction_B 0.50;
	 current_fraction_B 0.10;
	 impedance_fraction_B 0.40;
	 power_fraction_C 0.50;
	 current_fraction_C 0.10;
	 impedance_fraction_C 0.40;
	 nominal_voltage 7970.00;
}


object load {
	 parent 391-686652;
	 name LOAD_394-1044256-0;
	 phases AN;
	 base_power_A 270.199716;
	 base_power_B 0.000000;
	 base_power_C 0.000000;
	 power_pf_A 0.877313;
	 current_pf_A 0.877313;
	 impedance_pf_A 0.877313;
	 power_pf_B 0.000000;
	 current_pf_B 0.000000;
	 impedance_pf_B 0.000000;
	 power_pf_C 0.000000;
	 current_pf_C 0.000000;
	 impedance_pf_C 0.000000;
	 power_fraction_A 0.50;
	 current_fraction_A 0.10;
	 impedance_fraction_A 0.40;
	 power_fraction_B 0.50;
	 current_fraction_B 0.10;
	 impedance_fraction_B 0.40;
	 power_fraction_C 0.50;
	 current_fraction_C 0.10;
	 impedance_fraction_C 0.40;
	 nominal_voltage 7970.00;
}


object load {
	 parent 391-686655;
	 name LOAD_394-1044273-0;
	 phases AN;
	 base_power_A 0.000000;
	 base_power_B 0.000000;
	 base_power_C 0.000000;
	 power_pf_A 0.000000;
	 current_pf_A 0.000000;
	 impedance_pf_A 0.000000;
	 power_pf_B 0.000000;
	 current_pf_B 0.000000;
	 impedance_pf_B 0.000000;
	 power_pf_C 0.000000;
	 current_pf_C 0.000000;
	 impedance_pf_C 0.000000;
	 power_fraction_A 0.50;
	 current_fraction_A 0.10;
	 impedance_fraction_A 0.40;
	 power_fraction_B 0.50;
	 current_fraction_B 0.10;
	 impedance_fraction_B 0.40;
	 power_fraction_C 0.50;
	 current_fraction_C 0.10;
	 impedance_fraction_C 0.40;
	 nominal_voltage 7970.00;
}


object load {
	 parent 391-686397;
	 name LOAD_394-1044287-0;
	 phases AN;
	 base_power_A 0.000000;
	 base_power_B 0.000000;
	 base_power_C 0.000000;
	 power_pf_A 0.000000;
	 current_pf_A 0.000000;
	 impedance_pf_A 0.000000;
	 power_pf_B 0.000000;
	 current_pf_B 0.000000;
	 impedance_pf_B 0.000000;
	 power_pf_C 0.000000;
	 current_pf_C 0.000000;
	 impedance_pf_C 0.000000;
	 power_fraction_A 0.50;
	 current_fraction_A 0.10;
	 impedance_fraction_A 0.40;
	 power_fraction_B 0.50;
	 current_fraction_B 0.10;
	 impedance_fraction_B 0.40;
	 power_fraction_C 0.50;
	 current_fraction_C 0.10;
	 impedance_fraction_C 0.40;
	 nominal_voltage 7970.00;
}


object load {
	 parent 391-191605;
	 name LOAD_394-1051927-0;
	 phases CN;
	 base_power_A 0.000000;
	 base_power_B 0.000000;
	 base_power_C 78125.799837;
	 power_pf_A 0.000000;
	 current_pf_A 0.000000;
	 impedance_pf_A 0.000000;
	 power_pf_B 0.000000;
	 current_pf_B 0.000000;
	 impedance_pf_B 0.000000;
	 power_pf_C 0.877313;
	 current_pf_C 0.877313;
	 impedance_pf_C 0.877313;
	 power_fraction_A 0.50;
	 current_fraction_A 0.10;
	 impedance_fraction_A 0.40;
	 power_fraction_B 0.50;
	 current_fraction_B 0.10;
	 impedance_fraction_B 0.40;
	 power_fraction_C 0.50;
	 current_fraction_C 0.10;
	 impedance_fraction_C 0.40;
	 nominal_voltage 7970.00;
}


object load {
	 parent 391-280750;
	 name LOAD_394-1095798-0;
	 phases AN;
	 base_power_A 483.917416;
	 base_power_B 0.000000;
	 base_power_C 0.000000;
	 power_pf_A 0.877313;
	 current_pf_A 0.877313;
	 impedance_pf_A 0.877313;
	 power_pf_B 0.000000;
	 current_pf_B 0.000000;
	 impedance_pf_B 0.000000;
	 power_pf_C 0.000000;
	 current_pf_C 0.000000;
	 impedance_pf_C 0.000000;
	 power_fraction_A 0.50;
	 current_fraction_A 0.10;
	 impedance_fraction_A 0.40;
	 power_fraction_B 0.50;
	 current_fraction_B 0.10;
	 impedance_fraction_B 0.40;
	 power_fraction_C 0.50;
	 current_fraction_C 0.10;
	 impedance_fraction_C 0.40;
	 nominal_voltage 7970.00;
}


object load {
	 parent 391-280752;
	 name LOAD_394-1095800-0;
	 phases CN;
	 base_power_A 0.000000;
	 base_power_B 0.000000;
	 base_power_C 483.917416;
	 power_pf_A 0.000000;
	 current_pf_A 0.000000;
	 impedance_pf_A 0.000000;
	 power_pf_B 0.000000;
	 current_pf_B 0.000000;
	 impedance_pf_B 0.000000;
	 power_pf_C 0.877313;
	 current_pf_C 0.877313;
	 impedance_pf_C 0.877313;
	 power_fraction_A 0.50;
	 current_fraction_A 0.10;
	 impedance_fraction_A 0.40;
	 power_fraction_B 0.50;
	 current_fraction_B 0.10;
	 impedance_fraction_B 0.40;
	 power_fraction_C 0.50;
	 current_fraction_C 0.10;
	 impedance_fraction_C 0.40;
	 nominal_voltage 7970.00;
}


object load {
	 parent 391-280751;
	 name LOAD_394-1095802-0;
	 phases BN;
	 base_power_A 0.000000;
	 base_power_B 483.917416;
	 base_power_C 0.000000;
	 power_pf_A 0.000000;
	 current_pf_A 0.000000;
	 impedance_pf_A 0.000000;
	 power_pf_B 0.877313;
	 current_pf_B 0.877313;
	 impedance_pf_B 0.877313;
	 power_pf_C 0.000000;
	 current_pf_C 0.000000;
	 impedance_pf_C 0.000000;
	 power_fraction_A 0.50;
	 current_fraction_A 0.10;
	 impedance_fraction_A 0.40;
	 power_fraction_B 0.50;
	 current_fraction_B 0.10;
	 impedance_fraction_B 0.40;
	 power_fraction_C 0.50;
	 current_fraction_C 0.10;
	 impedance_fraction_C 0.40;
	 nominal_voltage 7970.00;
}


object load {
	 parent 391-280788;
	 name LOAD_394-1095807-0;
	 phases BN;
	 base_power_A 0.000000;
	 base_power_B 0.000000;
	 base_power_C 0.000000;
	 power_pf_A 0.000000;
	 current_pf_A 0.000000;
	 impedance_pf_A 0.000000;
	 power_pf_B 0.000000;
	 current_pf_B 0.000000;
	 impedance_pf_B 0.000000;
	 power_pf_C 0.000000;
	 current_pf_C 0.000000;
	 impedance_pf_C 0.000000;
	 power_fraction_A 0.50;
	 current_fraction_A 0.10;
	 impedance_fraction_A 0.40;
	 power_fraction_B 0.50;
	 current_fraction_B 0.10;
	 impedance_fraction_B 0.40;
	 power_fraction_C 0.50;
	 current_fraction_C 0.10;
	 impedance_fraction_C 0.40;
	 nominal_voltage 7970.00;
}


object load {
	 parent 391-280413;
	 name LOAD_394-1095814-0;
	 phases AN;
	 base_power_A 315.293450;
	 base_power_B 0.000000;
	 base_power_C 0.000000;
	 power_pf_A 0.877313;
	 current_pf_A 0.877313;
	 impedance_pf_A 0.877313;
	 power_pf_B 0.000000;
	 current_pf_B 0.000000;
	 impedance_pf_B 0.000000;
	 power_pf_C 0.000000;
	 current_pf_C 0.000000;
	 impedance_pf_C 0.000000;
	 power_fraction_A 0.50;
	 current_fraction_A 0.10;
	 impedance_fraction_A 0.40;
	 power_fraction_B 0.50;
	 current_fraction_B 0.10;
	 impedance_fraction_B 0.40;
	 power_fraction_C 0.50;
	 current_fraction_C 0.10;
	 impedance_fraction_C 0.40;
	 nominal_voltage 7970.00;
}


object load {
	 parent 391-280411;
	 name LOAD_394-1095816-0;
	 phases BN;
	 base_power_A 0.000000;
	 base_power_B 315.293450;
	 base_power_C 0.000000;
	 power_pf_A 0.000000;
	 current_pf_A 0.000000;
	 impedance_pf_A 0.000000;
	 power_pf_B 0.877313;
	 current_pf_B 0.877313;
	 impedance_pf_B 0.877313;
	 power_pf_C 0.000000;
	 current_pf_C 0.000000;
	 impedance_pf_C 0.000000;
	 power_fraction_A 0.50;
	 current_fraction_A 0.10;
	 impedance_fraction_A 0.40;
	 power_fraction_B 0.50;
	 current_fraction_B 0.10;
	 impedance_fraction_B 0.40;
	 power_fraction_C 0.50;
	 current_fraction_C 0.10;
	 impedance_fraction_C 0.40;
	 nominal_voltage 7970.00;
}


object load {
	 parent 391-280412;
	 name LOAD_394-1095834-0;
	 phases CN;
	 base_power_A 0.000000;
	 base_power_B 0.000000;
	 base_power_C 315.293450;
	 power_pf_A 0.000000;
	 current_pf_A 0.000000;
	 impedance_pf_A 0.000000;
	 power_pf_B 0.000000;
	 current_pf_B 0.000000;
	 impedance_pf_B 0.000000;
	 power_pf_C 0.877313;
	 current_pf_C 0.877313;
	 impedance_pf_C 0.877313;
	 power_fraction_A 0.50;
	 current_fraction_A 0.10;
	 impedance_fraction_A 0.40;
	 power_fraction_B 0.50;
	 current_fraction_B 0.10;
	 impedance_fraction_B 0.40;
	 power_fraction_C 0.50;
	 current_fraction_C 0.10;
	 impedance_fraction_C 0.40;
	 nominal_voltage 7970.00;
}


object load {
	 parent 391-722566;
	 name LOAD_394-1096400-0;
	 phases AN;
	 base_power_A 1940.118589;
	 base_power_B 0.000000;
	 base_power_C 0.000000;
	 power_pf_A 0.877313;
	 current_pf_A 0.877313;
	 impedance_pf_A 0.877313;
	 power_pf_B 0.000000;
	 current_pf_B 0.000000;
	 impedance_pf_B 0.000000;
	 power_pf_C 0.000000;
	 current_pf_C 0.000000;
	 impedance_pf_C 0.000000;
	 power_fraction_A 0.50;
	 current_fraction_A 0.10;
	 impedance_fraction_A 0.40;
	 power_fraction_B 0.50;
	 current_fraction_B 0.10;
	 impedance_fraction_B 0.40;
	 power_fraction_C 0.50;
	 current_fraction_C 0.10;
	 impedance_fraction_C 0.40;
	 nominal_voltage 7970.00;
}


object load {
	 parent 391-722515;
	 name LOAD_394-1096402-0;
	 phases CN;
	 base_power_A 0.000000;
	 base_power_B 0.000000;
	 base_power_C 1940.118589;
	 power_pf_A 0.000000;
	 current_pf_A 0.000000;
	 impedance_pf_A 0.000000;
	 power_pf_B 0.000000;
	 current_pf_B 0.000000;
	 impedance_pf_B 0.000000;
	 power_pf_C 0.877313;
	 current_pf_C 0.877313;
	 impedance_pf_C 0.877313;
	 power_fraction_A 0.50;
	 current_fraction_A 0.10;
	 impedance_fraction_A 0.40;
	 power_fraction_B 0.50;
	 current_fraction_B 0.10;
	 impedance_fraction_B 0.40;
	 power_fraction_C 0.50;
	 current_fraction_C 0.10;
	 impedance_fraction_C 0.40;
	 nominal_voltage 7970.00;
}


object load {
	 parent 391-722565;
	 name LOAD_394-1096404-0;
	 phases BN;
	 base_power_A 0.000000;
	 base_power_B 1940.118589;
	 base_power_C 0.000000;
	 power_pf_A 0.000000;
	 current_pf_A 0.000000;
	 impedance_pf_A 0.000000;
	 power_pf_B 0.877313;
	 current_pf_B 0.877313;
	 impedance_pf_B 0.877313;
	 power_pf_C 0.000000;
	 current_pf_C 0.000000;
	 impedance_pf_C 0.000000;
	 power_fraction_A 0.50;
	 current_fraction_A 0.10;
	 impedance_fraction_A 0.40;
	 power_fraction_B 0.50;
	 current_fraction_B 0.10;
	 impedance_fraction_B 0.40;
	 power_fraction_C 0.50;
	 current_fraction_C 0.10;
	 impedance_fraction_C 0.40;
	 nominal_voltage 7970.00;
}


object load {
	 parent 391-789059;
	 name LOAD_394-1224721-0;
	 phases CN;
	 base_power_A 0.000000;
	 base_power_B 0.000000;
	 base_power_C 0.000000;
	 power_pf_A 0.000000;
	 current_pf_A 0.000000;
	 impedance_pf_A 0.000000;
	 power_pf_B 0.000000;
	 current_pf_B 0.000000;
	 impedance_pf_B 0.000000;
	 power_pf_C 0.000000;
	 current_pf_C 0.000000;
	 impedance_pf_C 0.000000;
	 power_fraction_A 0.50;
	 current_fraction_A 0.10;
	 impedance_fraction_A 0.40;
	 power_fraction_B 0.50;
	 current_fraction_B 0.10;
	 impedance_fraction_B 0.40;
	 power_fraction_C 0.50;
	 current_fraction_C 0.10;
	 impedance_fraction_C 0.40;
	 nominal_voltage 7970.00;
}


object load {
	 parent 391-651449;
	 name LOAD_394-1400714-0;
	 phases CN;
	 base_power_A 0.000000;
	 base_power_B 0.000000;
	 base_power_C 4033.676766;
	 power_pf_A 0.000000;
	 current_pf_A 0.000000;
	 impedance_pf_A 0.000000;
	 power_pf_B 0.000000;
	 current_pf_B 0.000000;
	 impedance_pf_B 0.000000;
	 power_pf_C 0.877313;
	 current_pf_C 0.877313;
	 impedance_pf_C 0.877313;
	 power_fraction_A 0.50;
	 current_fraction_A 0.10;
	 impedance_fraction_A 0.40;
	 power_fraction_B 0.50;
	 current_fraction_B 0.10;
	 impedance_fraction_B 0.40;
	 power_fraction_C 0.50;
	 current_fraction_C 0.10;
	 impedance_fraction_C 0.40;
	 nominal_voltage 7970.00;
}


object load {
	 parent 391-651446;
	 name LOAD_394-1400716-0;
	 phases BN;
	 base_power_A 0.000000;
	 base_power_B 4033.676766;
	 base_power_C 0.000000;
	 power_pf_A 0.000000;
	 current_pf_A 0.000000;
	 impedance_pf_A 0.000000;
	 power_pf_B 0.877313;
	 current_pf_B 0.877313;
	 impedance_pf_B 0.877313;
	 power_pf_C 0.000000;
	 current_pf_C 0.000000;
	 impedance_pf_C 0.000000;
	 power_fraction_A 0.50;
	 current_fraction_A 0.10;
	 impedance_fraction_A 0.40;
	 power_fraction_B 0.50;
	 current_fraction_B 0.10;
	 impedance_fraction_B 0.40;
	 power_fraction_C 0.50;
	 current_fraction_C 0.10;
	 impedance_fraction_C 0.40;
	 nominal_voltage 7970.00;
}


object load {
	 parent 391-651447;
	 name LOAD_394-1400719-0;
	 phases AN;
	 base_power_A 4033.676766;
	 base_power_B 0.000000;
	 base_power_C 0.000000;
	 power_pf_A 0.877313;
	 current_pf_A 0.877313;
	 impedance_pf_A 0.877313;
	 power_pf_B 0.000000;
	 current_pf_B 0.000000;
	 impedance_pf_B 0.000000;
	 power_pf_C 0.000000;
	 current_pf_C 0.000000;
	 impedance_pf_C 0.000000;
	 power_fraction_A 0.50;
	 current_fraction_A 0.10;
	 impedance_fraction_A 0.40;
	 power_fraction_B 0.50;
	 current_fraction_B 0.10;
	 impedance_fraction_B 0.40;
	 power_fraction_C 0.50;
	 current_fraction_C 0.10;
	 impedance_fraction_C 0.40;
	 nominal_voltage 7970.00;
}


object load {
	 parent 391-939126;
	 name LOAD_394-1491930-0;
	 phases AN;
	 base_power_A 4711.025746;
	 base_power_B 0.000000;
	 base_power_C 0.000000;
	 power_pf_A 0.877313;
	 current_pf_A 0.877313;
	 impedance_pf_A 0.877313;
	 power_pf_B 0.000000;
	 current_pf_B 0.000000;
	 impedance_pf_B 0.000000;
	 power_pf_C 0.000000;
	 current_pf_C 0.000000;
	 impedance_pf_C 0.000000;
	 power_fraction_A 0.50;
	 current_fraction_A 0.10;
	 impedance_fraction_A 0.40;
	 power_fraction_B 0.50;
	 current_fraction_B 0.10;
	 impedance_fraction_B 0.40;
	 power_fraction_C 0.50;
	 current_fraction_C 0.10;
	 impedance_fraction_C 0.40;
	 nominal_voltage 7970.00;
}


object load {
	 parent 391-939127;
	 name LOAD_394-1491931-0;
	 phases BN;
	 base_power_A 0.000000;
	 base_power_B 4711.025746;
	 base_power_C 0.000000;
	 power_pf_A 0.000000;
	 current_pf_A 0.000000;
	 impedance_pf_A 0.000000;
	 power_pf_B 0.877313;
	 current_pf_B 0.877313;
	 impedance_pf_B 0.877313;
	 power_pf_C 0.000000;
	 current_pf_C 0.000000;
	 impedance_pf_C 0.000000;
	 power_fraction_A 0.50;
	 current_fraction_A 0.10;
	 impedance_fraction_A 0.40;
	 power_fraction_B 0.50;
	 current_fraction_B 0.10;
	 impedance_fraction_B 0.40;
	 power_fraction_C 0.50;
	 current_fraction_C 0.10;
	 impedance_fraction_C 0.40;
	 nominal_voltage 7970.00;
}


object load {
	 parent 391-939124;
	 name LOAD_394-1491932-0;
	 phases CN;
	 base_power_A 0.000000;
	 base_power_B 0.000000;
	 base_power_C 4711.025746;
	 power_pf_A 0.000000;
	 current_pf_A 0.000000;
	 impedance_pf_A 0.000000;
	 power_pf_B 0.000000;
	 current_pf_B 0.000000;
	 impedance_pf_B 0.000000;
	 power_pf_C 0.877313;
	 current_pf_C 0.877313;
	 impedance_pf_C 0.877313;
	 power_fraction_A 0.50;
	 current_fraction_A 0.10;
	 impedance_fraction_A 0.40;
	 power_fraction_B 0.50;
	 current_fraction_B 0.10;
	 impedance_fraction_B 0.40;
	 power_fraction_C 0.50;
	 current_fraction_C 0.10;
	 impedance_fraction_C 0.40;
	 nominal_voltage 7970.00;
}


object load {
	 parent 391-191419;
	 name LOAD_394-1582480-0;
	 phases AN;
	 base_power_A 0.000000;
	 base_power_B 0.000000;
	 base_power_C 0.000000;
	 power_pf_A 0.000000;
	 current_pf_A 0.000000;
	 impedance_pf_A 0.000000;
	 power_pf_B 0.000000;
	 current_pf_B 0.000000;
	 impedance_pf_B 0.000000;
	 power_pf_C 0.000000;
	 current_pf_C 0.000000;
	 impedance_pf_C 0.000000;
	 power_fraction_A 0.50;
	 current_fraction_A 0.10;
	 impedance_fraction_A 0.40;
	 power_fraction_B 0.50;
	 current_fraction_B 0.10;
	 impedance_fraction_B 0.40;
	 power_fraction_C 0.50;
	 current_fraction_C 0.10;
	 impedance_fraction_C 0.40;
	 nominal_voltage 7970.00;
}


object load {
	 parent 395-1356045;
	 name LOAD_394-1582488-0;
	 phases AN;
	 base_power_A 33148.826559;
	 base_power_B 0.000000;
	 base_power_C 0.000000;
	 power_pf_A 0.877313;
	 current_pf_A 0.877313;
	 impedance_pf_A 0.877313;
	 power_pf_B 0.000000;
	 current_pf_B 0.000000;
	 impedance_pf_B 0.000000;
	 power_pf_C 0.000000;
	 current_pf_C 0.000000;
	 impedance_pf_C 0.000000;
	 power_fraction_A 0.50;
	 current_fraction_A 0.10;
	 impedance_fraction_A 0.40;
	 power_fraction_B 0.50;
	 current_fraction_B 0.10;
	 impedance_fraction_B 0.40;
	 power_fraction_C 0.50;
	 current_fraction_C 0.10;
	 impedance_fraction_C 0.40;
	 nominal_voltage 7970.00;
}


object load {
	 parent 391-990653;
	 name LOAD_394-1595301-0;
	 phases BN;
	 base_power_A 0.000000;
	 base_power_B 15204.156168;
	 base_power_C 0.000000;
	 power_pf_A 0.000000;
	 current_pf_A 0.000000;
	 impedance_pf_A 0.000000;
	 power_pf_B 0.877313;
	 current_pf_B 0.877313;
	 impedance_pf_B 0.877313;
	 power_pf_C 0.000000;
	 current_pf_C 0.000000;
	 impedance_pf_C 0.000000;
	 power_fraction_A 0.50;
	 current_fraction_A 0.10;
	 impedance_fraction_A 0.40;
	 power_fraction_B 0.50;
	 current_fraction_B 0.10;
	 impedance_fraction_B 0.40;
	 power_fraction_C 0.50;
	 current_fraction_C 0.10;
	 impedance_fraction_C 0.40;
	 nominal_voltage 7970.00;
}


object load {
	 parent 391-755777;
	 name LOAD_394-1613964-0;
	 phases AN;
	 base_power_A 60627.811286;
	 base_power_B 0.000000;
	 base_power_C 0.000000;
	 power_pf_A 0.877313;
	 current_pf_A 0.877313;
	 impedance_pf_A 0.877313;
	 power_pf_B 0.000000;
	 current_pf_B 0.000000;
	 impedance_pf_B 0.000000;
	 power_pf_C 0.000000;
	 current_pf_C 0.000000;
	 impedance_pf_C 0.000000;
	 power_fraction_A 0.50;
	 current_fraction_A 0.10;
	 impedance_fraction_A 0.40;
	 power_fraction_B 0.50;
	 current_fraction_B 0.10;
	 impedance_fraction_B 0.40;
	 power_fraction_C 0.50;
	 current_fraction_C 0.10;
	 impedance_fraction_C 0.40;
	 nominal_voltage 7970.00;
}


object load {
	 parent 395-1356045;
	 name LOAD_394-1613967-0;
	 phases AN;
	 base_power_A 33283.092243;
	 base_power_B 0.000000;
	 base_power_C 0.000000;
	 power_pf_A 0.877313;
	 current_pf_A 0.877313;
	 impedance_pf_A 0.877313;
	 power_pf_B 0.000000;
	 current_pf_B 0.000000;
	 impedance_pf_B 0.000000;
	 power_pf_C 0.000000;
	 current_pf_C 0.000000;
	 impedance_pf_C 0.000000;
	 power_fraction_A 0.50;
	 current_fraction_A 0.10;
	 impedance_fraction_A 0.40;
	 power_fraction_B 0.50;
	 current_fraction_B 0.10;
	 impedance_fraction_B 0.40;
	 power_fraction_C 0.50;
	 current_fraction_C 0.10;
	 impedance_fraction_C 0.40;
	 nominal_voltage 7970.00;
}


object load {
	 parent 391-817531;
	 name LOAD_394-1614003-0;
	 phases CN;
	 base_power_A 0.000000;
	 base_power_B 0.000000;
	 base_power_C 401.201243;
	 power_pf_A 0.000000;
	 current_pf_A 0.000000;
	 impedance_pf_A 0.000000;
	 power_pf_B 0.000000;
	 current_pf_B 0.000000;
	 impedance_pf_B 0.000000;
	 power_pf_C 0.877313;
	 current_pf_C 0.877313;
	 impedance_pf_C 0.877313;
	 power_fraction_A 0.50;
	 current_fraction_A 0.10;
	 impedance_fraction_A 0.40;
	 power_fraction_B 0.50;
	 current_fraction_B 0.10;
	 impedance_fraction_B 0.40;
	 power_fraction_C 0.50;
	 current_fraction_C 0.10;
	 impedance_fraction_C 0.40;
	 nominal_voltage 7970.00;
}


object load {
	 parent 391-977846;
	 name LOAD_394-1614180-0;
	 phases BN;
	 base_power_A 0.000000;
	 base_power_B 0.000000;
	 base_power_C 0.000000;
	 power_pf_A 0.000000;
	 current_pf_A 0.000000;
	 impedance_pf_A 0.000000;
	 power_pf_B 0.000000;
	 current_pf_B 0.000000;
	 impedance_pf_B 0.000000;
	 power_pf_C 0.000000;
	 current_pf_C 0.000000;
	 impedance_pf_C 0.000000;
	 power_fraction_A 0.50;
	 current_fraction_A 0.10;
	 impedance_fraction_A 0.40;
	 power_fraction_B 0.50;
	 current_fraction_B 0.10;
	 impedance_fraction_B 0.40;
	 power_fraction_C 0.50;
	 current_fraction_C 0.10;
	 impedance_fraction_C 0.40;
	 nominal_voltage 7970.00;
}


object load {
	 parent 391-1025859;
	 name LOAD_394-1650322-0;
	 phases AN;
	 base_power_A 103565.193794;
	 base_power_B 0.000000;
	 base_power_C 0.000000;
	 power_pf_A 0.877313;
	 current_pf_A 0.877313;
	 impedance_pf_A 0.877313;
	 power_pf_B 0.000000;
	 current_pf_B 0.000000;
	 impedance_pf_B 0.000000;
	 power_pf_C 0.000000;
	 current_pf_C 0.000000;
	 impedance_pf_C 0.000000;
	 power_fraction_A 0.50;
	 current_fraction_A 0.10;
	 impedance_fraction_A 0.40;
	 power_fraction_B 0.50;
	 current_fraction_B 0.10;
	 impedance_fraction_B 0.40;
	 power_fraction_C 0.50;
	 current_fraction_C 0.10;
	 impedance_fraction_C 0.40;
	 nominal_voltage 7970.00;
}


object load {
	 parent 391-1025858;
	 name LOAD_394-1650323-0;
	 phases BN;
	 base_power_A 0.000000;
	 base_power_B 103565.193794;
	 base_power_C 0.000000;
	 power_pf_A 0.000000;
	 current_pf_A 0.000000;
	 impedance_pf_A 0.000000;
	 power_pf_B 0.877313;
	 current_pf_B 0.877313;
	 impedance_pf_B 0.877313;
	 power_pf_C 0.000000;
	 current_pf_C 0.000000;
	 impedance_pf_C 0.000000;
	 power_fraction_A 0.50;
	 current_fraction_A 0.10;
	 impedance_fraction_A 0.40;
	 power_fraction_B 0.50;
	 current_fraction_B 0.10;
	 impedance_fraction_B 0.40;
	 power_fraction_C 0.50;
	 current_fraction_C 0.10;
	 impedance_fraction_C 0.40;
	 nominal_voltage 7970.00;
}


object load {
	 parent 391-1025857;
	 name LOAD_394-1650324-0;
	 phases CN;
	 base_power_A 0.000000;
	 base_power_B 0.000000;
	 base_power_C 103565.193794;
	 power_pf_A 0.000000;
	 current_pf_A 0.000000;
	 impedance_pf_A 0.000000;
	 power_pf_B 0.000000;
	 current_pf_B 0.000000;
	 impedance_pf_B 0.000000;
	 power_pf_C 0.877313;
	 current_pf_C 0.877313;
	 impedance_pf_C 0.877313;
	 power_fraction_A 0.50;
	 current_fraction_A 0.10;
	 impedance_fraction_A 0.40;
	 power_fraction_B 0.50;
	 current_fraction_B 0.10;
	 impedance_fraction_B 0.40;
	 power_fraction_C 0.50;
	 current_fraction_C 0.10;
	 impedance_fraction_C 0.40;
	 nominal_voltage 7970.00;
}


object load {
	 parent 391-1025856;
	 name LOAD_394-1650379-0;
	 phases AN;
	 base_power_A 19033.665918;
	 base_power_B 0.000000;
	 base_power_C 0.000000;
	 power_pf_A 0.877313;
	 current_pf_A 0.877313;
	 impedance_pf_A 0.877313;
	 power_pf_B 0.000000;
	 current_pf_B 0.000000;
	 impedance_pf_B 0.000000;
	 power_pf_C 0.000000;
	 current_pf_C 0.000000;
	 impedance_pf_C 0.000000;
	 power_fraction_A 0.50;
	 current_fraction_A 0.10;
	 impedance_fraction_A 0.40;
	 power_fraction_B 0.50;
	 current_fraction_B 0.10;
	 impedance_fraction_B 0.40;
	 power_fraction_C 0.50;
	 current_fraction_C 0.10;
	 impedance_fraction_C 0.40;
	 nominal_voltage 7970.00;
}


object load {
	 parent 391-1025854;
	 name LOAD_394-1650381-0;
	 phases CN;
	 base_power_A 0.000000;
	 base_power_B 0.000000;
	 base_power_C 19033.665918;
	 power_pf_A 0.000000;
	 current_pf_A 0.000000;
	 impedance_pf_A 0.000000;
	 power_pf_B 0.000000;
	 current_pf_B 0.000000;
	 impedance_pf_B 0.000000;
	 power_pf_C 0.877313;
	 current_pf_C 0.877313;
	 impedance_pf_C 0.877313;
	 power_fraction_A 0.50;
	 current_fraction_A 0.10;
	 impedance_fraction_A 0.40;
	 power_fraction_B 0.50;
	 current_fraction_B 0.10;
	 impedance_fraction_B 0.40;
	 power_fraction_C 0.50;
	 current_fraction_C 0.10;
	 impedance_fraction_C 0.40;
	 nominal_voltage 7970.00;
}


object load {
	 parent 391-1025853;
	 name LOAD_394-1650383-0;
	 phases BN;
	 base_power_A 0.000000;
	 base_power_B 19033.665918;
	 base_power_C 0.000000;
	 power_pf_A 0.000000;
	 current_pf_A 0.000000;
	 impedance_pf_A 0.000000;
	 power_pf_B 0.877313;
	 current_pf_B 0.877313;
	 impedance_pf_B 0.877313;
	 power_pf_C 0.000000;
	 current_pf_C 0.000000;
	 impedance_pf_C 0.000000;
	 power_fraction_A 0.50;
	 current_fraction_A 0.10;
	 impedance_fraction_A 0.40;
	 power_fraction_B 0.50;
	 current_fraction_B 0.10;
	 impedance_fraction_B 0.40;
	 power_fraction_C 0.50;
	 current_fraction_C 0.10;
	 impedance_fraction_C 0.40;
	 nominal_voltage 7970.00;
}


object load {
	 parent 391-1053695;
	 name LOAD_394-1692254-0;
	 phases BN;
	 base_power_A 0.000000;
	 base_power_B 13138.452136;
	 base_power_C 0.000000;
	 power_pf_A 0.000000;
	 current_pf_A 0.000000;
	 impedance_pf_A 0.000000;
	 power_pf_B 0.877313;
	 current_pf_B 0.877313;
	 impedance_pf_B 0.877313;
	 power_pf_C 0.000000;
	 current_pf_C 0.000000;
	 impedance_pf_C 0.000000;
	 power_fraction_A 0.50;
	 current_fraction_A 0.10;
	 impedance_fraction_A 0.40;
	 power_fraction_B 0.50;
	 current_fraction_B 0.10;
	 impedance_fraction_B 0.40;
	 power_fraction_C 0.50;
	 current_fraction_C 0.10;
	 impedance_fraction_C 0.40;
	 nominal_voltage 7970.00;
}


object load {
	 parent 391-191320;
	 name LOAD_394-1697704-0;
	 phases CN;
	 base_power_A 0.000000;
	 base_power_B 0.000000;
	 base_power_C 11352.885367;
	 power_pf_A 0.000000;
	 current_pf_A 0.000000;
	 impedance_pf_A 0.000000;
	 power_pf_B 0.000000;
	 current_pf_B 0.000000;
	 impedance_pf_B 0.000000;
	 power_pf_C 0.877313;
	 current_pf_C 0.877313;
	 impedance_pf_C 0.877313;
	 power_fraction_A 0.50;
	 current_fraction_A 0.10;
	 impedance_fraction_A 0.40;
	 power_fraction_B 0.50;
	 current_fraction_B 0.10;
	 impedance_fraction_B 0.40;
	 power_fraction_C 0.50;
	 current_fraction_C 0.10;
	 impedance_fraction_C 0.40;
	 nominal_voltage 7970.00;
}


object load {
	 parent 391-191318;
	 name LOAD_394-1697708-0;
	 phases AN;
	 base_power_A 11248.504859;
	 base_power_B 0.000000;
	 base_power_C 0.000000;
	 power_pf_A 0.877313;
	 current_pf_A 0.877313;
	 impedance_pf_A 0.877313;
	 power_pf_B 0.000000;
	 current_pf_B 0.000000;
	 impedance_pf_B 0.000000;
	 power_pf_C 0.000000;
	 current_pf_C 0.000000;
	 impedance_pf_C 0.000000;
	 power_fraction_A 0.50;
	 current_fraction_A 0.10;
	 impedance_fraction_A 0.40;
	 power_fraction_B 0.50;
	 current_fraction_B 0.10;
	 impedance_fraction_B 0.40;
	 power_fraction_C 0.50;
	 current_fraction_C 0.10;
	 impedance_fraction_C 0.40;
	 nominal_voltage 7970.00;
}


object load {
	 parent 395-1325949;
	 name LOAD_394-1718506-0;
	 phases BN;
	 base_power_A 0.000000;
	 base_power_B 80410.347505;
	 base_power_C 0.000000;
	 power_pf_A 0.000000;
	 current_pf_A 0.000000;
	 impedance_pf_A 0.000000;
	 power_pf_B 0.877313;
	 current_pf_B 0.877313;
	 impedance_pf_B 0.877313;
	 power_pf_C 0.000000;
	 current_pf_C 0.000000;
	 impedance_pf_C 0.000000;
	 power_fraction_A 0.50;
	 current_fraction_A 0.10;
	 impedance_fraction_A 0.40;
	 power_fraction_B 0.50;
	 current_fraction_B 0.10;
	 impedance_fraction_B 0.40;
	 power_fraction_C 0.50;
	 current_fraction_C 0.10;
	 impedance_fraction_C 0.40;
	 nominal_voltage 7970.00;
}


object load {
	 parent 392-94775;
	 name LOAD_394-1771383-0;
	 phases ABCN;
	 base_power_A 0.000000;
	 base_power_B 0.000000;
	 base_power_C 0.000000;
	 power_pf_A 0.000000;
	 current_pf_A 0.000000;
	 impedance_pf_A 0.000000;
	 power_pf_B 0.000000;
	 current_pf_B 0.000000;
	 impedance_pf_B 0.000000;
	 power_pf_C 0.000000;
	 current_pf_C 0.000000;
	 impedance_pf_C 0.000000;
	 power_fraction_A 0.50;
	 current_fraction_A 0.10;
	 impedance_fraction_A 0.40;
	 power_fraction_B 0.50;
	 current_fraction_B 0.10;
	 impedance_fraction_B 0.40;
	 power_fraction_C 0.50;
	 current_fraction_C 0.10;
	 impedance_fraction_C 0.40;
	 nominal_voltage 7970.00;
}


object load {
	 parent 391-1177556;
	 name LOAD_394-1859318-0;
	 phases AN;
	 base_power_A 19179.633079;
	 base_power_B 0.000000;
	 base_power_C 0.000000;
	 power_pf_A 0.877313;
	 current_pf_A 0.877313;
	 impedance_pf_A 0.877313;
	 power_pf_B 0.000000;
	 current_pf_B 0.000000;
	 impedance_pf_B 0.000000;
	 power_pf_C 0.000000;
	 current_pf_C 0.000000;
	 impedance_pf_C 0.000000;
	 power_fraction_A 0.50;
	 current_fraction_A 0.10;
	 impedance_fraction_A 0.40;
	 power_fraction_B 0.50;
	 current_fraction_B 0.10;
	 impedance_fraction_B 0.40;
	 power_fraction_C 0.50;
	 current_fraction_C 0.10;
	 impedance_fraction_C 0.40;
	 nominal_voltage 7970.00;
}


object load {
	 parent 391-1177557;
	 name LOAD_394-1859319-0;
	 phases CN;
	 base_power_A 0.000000;
	 base_power_B 0.000000;
	 base_power_C 1089.318165;
	 power_pf_A 0.000000;
	 current_pf_A 0.000000;
	 impedance_pf_A 0.000000;
	 power_pf_B 0.000000;
	 current_pf_B 0.000000;
	 impedance_pf_B 0.000000;
	 power_pf_C 0.877313;
	 current_pf_C 0.877313;
	 impedance_pf_C 0.877313;
	 power_fraction_A 0.50;
	 current_fraction_A 0.10;
	 impedance_fraction_A 0.40;
	 power_fraction_B 0.50;
	 current_fraction_B 0.10;
	 impedance_fraction_B 0.40;
	 power_fraction_C 0.50;
	 current_fraction_C 0.10;
	 impedance_fraction_C 0.40;
	 nominal_voltage 7970.00;
}


object load {
	 parent 391-280718;
	 name LOAD_394-1936250-0;
	 phases AN;
	 base_power_A 35945.919514;
	 base_power_B 0.000000;
	 base_power_C 0.000000;
	 power_pf_A 0.877313;
	 current_pf_A 0.877313;
	 impedance_pf_A 0.877313;
	 power_pf_B 0.000000;
	 current_pf_B 0.000000;
	 impedance_pf_B 0.000000;
	 power_pf_C 0.000000;
	 current_pf_C 0.000000;
	 impedance_pf_C 0.000000;
	 power_fraction_A 0.50;
	 current_fraction_A 0.10;
	 impedance_fraction_A 0.40;
	 power_fraction_B 0.50;
	 current_fraction_B 0.10;
	 impedance_fraction_B 0.40;
	 power_fraction_C 0.50;
	 current_fraction_C 0.10;
	 impedance_fraction_C 0.40;
	 nominal_voltage 7970.00;
}


object load {
	 parent 391-919950;
	 name LOAD_394-2207528-0;
	 phases AN;
	 base_power_A 49763.171366;
	 base_power_B 0.000000;
	 base_power_C 0.000000;
	 power_pf_A 0.877313;
	 current_pf_A 0.877313;
	 impedance_pf_A 0.877313;
	 power_pf_B 0.000000;
	 current_pf_B 0.000000;
	 impedance_pf_B 0.000000;
	 power_pf_C 0.000000;
	 current_pf_C 0.000000;
	 impedance_pf_C 0.000000;
	 power_fraction_A 0.50;
	 current_fraction_A 0.10;
	 impedance_fraction_A 0.40;
	 power_fraction_B 0.50;
	 current_fraction_B 0.10;
	 impedance_fraction_B 0.40;
	 power_fraction_C 0.50;
	 current_fraction_C 0.10;
	 impedance_fraction_C 0.40;
	 nominal_voltage 7970.00;
}


object load {
	 parent 391-919947;
	 name LOAD_394-2207530-0;
	 phases BN;
	 base_power_A 0.000000;
	 base_power_B 49763.171366;
	 base_power_C 0.000000;
	 power_pf_A 0.000000;
	 current_pf_A 0.000000;
	 impedance_pf_A 0.000000;
	 power_pf_B 0.877313;
	 current_pf_B 0.877313;
	 impedance_pf_B 0.877313;
	 power_pf_C 0.000000;
	 current_pf_C 0.000000;
	 impedance_pf_C 0.000000;
	 power_fraction_A 0.50;
	 current_fraction_A 0.10;
	 impedance_fraction_A 0.40;
	 power_fraction_B 0.50;
	 current_fraction_B 0.10;
	 impedance_fraction_B 0.40;
	 power_fraction_C 0.50;
	 current_fraction_C 0.10;
	 impedance_fraction_C 0.40;
	 nominal_voltage 7970.00;
}


object load {
	 parent 391-919948;
	 name LOAD_394-2207532-0;
	 phases CN;
	 base_power_A 0.000000;
	 base_power_B 0.000000;
	 base_power_C 49763.171366;
	 power_pf_A 0.000000;
	 current_pf_A 0.000000;
	 impedance_pf_A 0.000000;
	 power_pf_B 0.000000;
	 current_pf_B 0.000000;
	 impedance_pf_B 0.000000;
	 power_pf_C 0.877313;
	 current_pf_C 0.877313;
	 impedance_pf_C 0.877313;
	 power_fraction_A 0.50;
	 current_fraction_A 0.10;
	 impedance_fraction_A 0.40;
	 power_fraction_B 0.50;
	 current_fraction_B 0.10;
	 impedance_fraction_B 0.40;
	 power_fraction_C 0.50;
	 current_fraction_C 0.10;
	 impedance_fraction_C 0.40;
	 nominal_voltage 7970.00;
}


object load {
	 parent 391-280435;
	 name LOAD_394-2251562-0;
	 phases AN;
	 base_power_A 15849.782371;
	 base_power_B 0.000000;
	 base_power_C 0.000000;
	 power_pf_A 0.877313;
	 current_pf_A 0.877313;
	 impedance_pf_A 0.877313;
	 power_pf_B 0.000000;
	 current_pf_B 0.000000;
	 impedance_pf_B 0.000000;
	 power_pf_C 0.000000;
	 current_pf_C 0.000000;
	 impedance_pf_C 0.000000;
	 power_fraction_A 0.50;
	 current_fraction_A 0.10;
	 impedance_fraction_A 0.40;
	 power_fraction_B 0.50;
	 current_fraction_B 0.10;
	 impedance_fraction_B 0.40;
	 power_fraction_C 0.50;
	 current_fraction_C 0.10;
	 impedance_fraction_C 0.40;
	 nominal_voltage 7970.00;
}


object load {
	 parent 391-280437;
	 name LOAD_394-2251564-0;
	 phases CN;
	 base_power_A 0.000000;
	 base_power_B 0.000000;
	 base_power_C 15849.782371;
	 power_pf_A 0.000000;
	 current_pf_A 0.000000;
	 impedance_pf_A 0.000000;
	 power_pf_B 0.000000;
	 current_pf_B 0.000000;
	 impedance_pf_B 0.000000;
	 power_pf_C 0.877313;
	 current_pf_C 0.877313;
	 impedance_pf_C 0.877313;
	 power_fraction_A 0.50;
	 current_fraction_A 0.10;
	 impedance_fraction_A 0.40;
	 power_fraction_B 0.50;
	 current_fraction_B 0.10;
	 impedance_fraction_B 0.40;
	 power_fraction_C 0.50;
	 current_fraction_C 0.10;
	 impedance_fraction_C 0.40;
	 nominal_voltage 7970.00;
}


object load {
	 parent 391-280436;
	 name LOAD_394-2251566-0;
	 phases BN;
	 base_power_A 0.000000;
	 base_power_B 15849.782371;
	 base_power_C 0.000000;
	 power_pf_A 0.000000;
	 current_pf_A 0.000000;
	 impedance_pf_A 0.000000;
	 power_pf_B 0.877313;
	 current_pf_B 0.877313;
	 impedance_pf_B 0.877313;
	 power_pf_C 0.000000;
	 current_pf_C 0.000000;
	 impedance_pf_C 0.000000;
	 power_fraction_A 0.50;
	 current_fraction_A 0.10;
	 impedance_fraction_A 0.40;
	 power_fraction_B 0.50;
	 current_fraction_B 0.10;
	 impedance_fraction_B 0.40;
	 power_fraction_C 0.50;
	 current_fraction_C 0.10;
	 impedance_fraction_C 0.40;
	 nominal_voltage 7970.00;
}


object load {
	 parent 391-859767;
	 name LOAD_394-2336684-0;
	 phases AN;
	 base_power_A 26965.641535;
	 base_power_B 0.000000;
	 base_power_C 0.000000;
	 power_pf_A 0.877313;
	 current_pf_A 0.877313;
	 impedance_pf_A 0.877313;
	 power_pf_B 0.000000;
	 current_pf_B 0.000000;
	 impedance_pf_B 0.000000;
	 power_pf_C 0.000000;
	 current_pf_C 0.000000;
	 impedance_pf_C 0.000000;
	 power_fraction_A 0.50;
	 current_fraction_A 0.10;
	 impedance_fraction_A 0.40;
	 power_fraction_B 0.50;
	 current_fraction_B 0.10;
	 impedance_fraction_B 0.40;
	 power_fraction_C 0.50;
	 current_fraction_C 0.10;
	 impedance_fraction_C 0.40;
	 nominal_voltage 7970.00;
}


object load {
	 parent 391-191543;
	 name LOAD_394-2415076-0;
	 phases BN;
	 base_power_A 0.000000;
	 base_power_B 12149.412369;
	 base_power_C 0.000000;
	 power_pf_A 0.000000;
	 current_pf_A 0.000000;
	 impedance_pf_A 0.000000;
	 power_pf_B 0.877313;
	 current_pf_B 0.877313;
	 impedance_pf_B 0.877313;
	 power_pf_C 0.000000;
	 current_pf_C 0.000000;
	 impedance_pf_C 0.000000;
	 power_fraction_A 0.50;
	 current_fraction_A 0.10;
	 impedance_fraction_A 0.40;
	 power_fraction_B 0.50;
	 current_fraction_B 0.10;
	 impedance_fraction_B 0.40;
	 power_fraction_C 0.50;
	 current_fraction_C 0.10;
	 impedance_fraction_C 0.40;
	 nominal_voltage 7970.00;
}


object load {
	 parent 391-1696036;
	 name LOAD_394-2460858-0;
	 phases AN;
	 base_power_A 0.000000;
	 base_power_B 0.000000;
	 base_power_C 0.000000;
	 power_pf_A 0.000000;
	 current_pf_A 0.000000;
	 impedance_pf_A 0.000000;
	 power_pf_B 0.000000;
	 current_pf_B 0.000000;
	 impedance_pf_B 0.000000;
	 power_pf_C 0.000000;
	 current_pf_C 0.000000;
	 impedance_pf_C 0.000000;
	 power_fraction_A 0.50;
	 current_fraction_A 0.10;
	 impedance_fraction_A 0.40;
	 power_fraction_B 0.50;
	 current_fraction_B 0.10;
	 impedance_fraction_B 0.40;
	 power_fraction_C 0.50;
	 current_fraction_C 0.10;
	 impedance_fraction_C 0.40;
	 nominal_voltage 7970.00;
}


object load {
	 parent 391-1710084;
	 name LOAD_394-2475226-0;
	 phases AN;
	 base_power_A 3911.186228;
	 base_power_B 0.000000;
	 base_power_C 0.000000;
	 power_pf_A 0.877313;
	 current_pf_A 0.877313;
	 impedance_pf_A 0.877313;
	 power_pf_B 0.000000;
	 current_pf_B 0.000000;
	 impedance_pf_B 0.000000;
	 power_pf_C 0.000000;
	 current_pf_C 0.000000;
	 impedance_pf_C 0.000000;
	 power_fraction_A 0.50;
	 current_fraction_A 0.10;
	 impedance_fraction_A 0.40;
	 power_fraction_B 0.50;
	 current_fraction_B 0.10;
	 impedance_fraction_B 0.40;
	 power_fraction_C 0.50;
	 current_fraction_C 0.10;
	 impedance_fraction_C 0.40;
	 nominal_voltage 7970.00;
}


object load {
	 parent 391-1710085;
	 name LOAD_394-2475227-0;
	 phases BN;
	 base_power_A 0.000000;
	 base_power_B 3911.186228;
	 base_power_C 0.000000;
	 power_pf_A 0.000000;
	 current_pf_A 0.000000;
	 impedance_pf_A 0.000000;
	 power_pf_B 0.877313;
	 current_pf_B 0.877313;
	 impedance_pf_B 0.877313;
	 power_pf_C 0.000000;
	 current_pf_C 0.000000;
	 impedance_pf_C 0.000000;
	 power_fraction_A 0.50;
	 current_fraction_A 0.10;
	 impedance_fraction_A 0.40;
	 power_fraction_B 0.50;
	 current_fraction_B 0.10;
	 impedance_fraction_B 0.40;
	 power_fraction_C 0.50;
	 current_fraction_C 0.10;
	 impedance_fraction_C 0.40;
	 nominal_voltage 7970.00;
}


object load {
	 parent 391-1710086;
	 name LOAD_394-2475228-0;
	 phases CN;
	 base_power_A 0.000000;
	 base_power_B 0.000000;
	 base_power_C 3911.186228;
	 power_pf_A 0.000000;
	 current_pf_A 0.000000;
	 impedance_pf_A 0.000000;
	 power_pf_B 0.000000;
	 current_pf_B 0.000000;
	 impedance_pf_B 0.000000;
	 power_pf_C 0.877313;
	 current_pf_C 0.877313;
	 impedance_pf_C 0.877313;
	 power_fraction_A 0.50;
	 current_fraction_A 0.10;
	 impedance_fraction_A 0.40;
	 power_fraction_B 0.50;
	 current_fraction_B 0.10;
	 impedance_fraction_B 0.40;
	 power_fraction_C 0.50;
	 current_fraction_C 0.10;
	 impedance_fraction_C 0.40;
	 nominal_voltage 7970.00;
}


object load {
	 parent 391-1602927;
	 name LOAD_394-2484900-0;
	 phases AN;
	 base_power_A 9917.840771;
	 base_power_B 0.000000;
	 base_power_C 0.000000;
	 power_pf_A 0.877313;
	 current_pf_A 0.877313;
	 impedance_pf_A 0.877313;
	 power_pf_B 0.000000;
	 current_pf_B 0.000000;
	 impedance_pf_B 0.000000;
	 power_pf_C 0.000000;
	 current_pf_C 0.000000;
	 impedance_pf_C 0.000000;
	 power_fraction_A 0.50;
	 current_fraction_A 0.10;
	 impedance_fraction_A 0.40;
	 power_fraction_B 0.50;
	 current_fraction_B 0.10;
	 impedance_fraction_B 0.40;
	 power_fraction_C 0.50;
	 current_fraction_C 0.10;
	 impedance_fraction_C 0.40;
	 nominal_voltage 7970.00;
}


object load {
	 parent 391-1602929;
	 name LOAD_394-2484902-0;
	 phases CN;
	 base_power_A 0.000000;
	 base_power_B 0.000000;
	 base_power_C 9917.840771;
	 power_pf_A 0.000000;
	 current_pf_A 0.000000;
	 impedance_pf_A 0.000000;
	 power_pf_B 0.000000;
	 current_pf_B 0.000000;
	 impedance_pf_B 0.000000;
	 power_pf_C 0.877313;
	 current_pf_C 0.877313;
	 impedance_pf_C 0.877313;
	 power_fraction_A 0.50;
	 current_fraction_A 0.10;
	 impedance_fraction_A 0.40;
	 power_fraction_B 0.50;
	 current_fraction_B 0.10;
	 impedance_fraction_B 0.40;
	 power_fraction_C 0.50;
	 current_fraction_C 0.10;
	 impedance_fraction_C 0.40;
	 nominal_voltage 7970.00;
}


object load {
	 parent 391-1602928;
	 name LOAD_394-2484904-0;
	 phases BN;
	 base_power_A 0.000000;
	 base_power_B 9917.840771;
	 base_power_C 0.000000;
	 power_pf_A 0.000000;
	 current_pf_A 0.000000;
	 impedance_pf_A 0.000000;
	 power_pf_B 0.877313;
	 current_pf_B 0.877313;
	 impedance_pf_B 0.877313;
	 power_pf_C 0.000000;
	 current_pf_C 0.000000;
	 impedance_pf_C 0.000000;
	 power_fraction_A 0.50;
	 current_fraction_A 0.10;
	 impedance_fraction_A 0.40;
	 power_fraction_B 0.50;
	 current_fraction_B 0.10;
	 impedance_fraction_B 0.40;
	 power_fraction_C 0.50;
	 current_fraction_C 0.10;
	 impedance_fraction_C 0.40;
	 nominal_voltage 7970.00;
}


object load {
	 parent 391-1718725;
	 name LOAD_394-2507050-0;
	 phases AN;
	 base_power_A 1113.126115;
	 base_power_B 0.000000;
	 base_power_C 0.000000;
	 power_pf_A 0.877313;
	 current_pf_A 0.877313;
	 impedance_pf_A 0.877313;
	 power_pf_B 0.000000;
	 current_pf_B 0.000000;
	 impedance_pf_B 0.000000;
	 power_pf_C 0.000000;
	 current_pf_C 0.000000;
	 impedance_pf_C 0.000000;
	 power_fraction_A 0.50;
	 current_fraction_A 0.10;
	 impedance_fraction_A 0.40;
	 power_fraction_B 0.50;
	 current_fraction_B 0.10;
	 impedance_fraction_B 0.40;
	 power_fraction_C 0.50;
	 current_fraction_C 0.10;
	 impedance_fraction_C 0.40;
	 nominal_voltage 7970.00;
}


object load {
	 parent 391-1718727;
	 name LOAD_394-2507052-0;
	 phases CN;
	 base_power_A 0.000000;
	 base_power_B 0.000000;
	 base_power_C 1113.126115;
	 power_pf_A 0.000000;
	 current_pf_A 0.000000;
	 impedance_pf_A 0.000000;
	 power_pf_B 0.000000;
	 current_pf_B 0.000000;
	 impedance_pf_B 0.000000;
	 power_pf_C 0.877313;
	 current_pf_C 0.877313;
	 impedance_pf_C 0.877313;
	 power_fraction_A 0.50;
	 current_fraction_A 0.10;
	 impedance_fraction_A 0.40;
	 power_fraction_B 0.50;
	 current_fraction_B 0.10;
	 impedance_fraction_B 0.40;
	 power_fraction_C 0.50;
	 current_fraction_C 0.10;
	 impedance_fraction_C 0.40;
	 nominal_voltage 7970.00;
}


object load {
	 parent 391-1718726;
	 name LOAD_394-2507054-0;
	 phases BN;
	 base_power_A 0.000000;
	 base_power_B 1113.126115;
	 base_power_C 0.000000;
	 power_pf_A 0.000000;
	 current_pf_A 0.000000;
	 impedance_pf_A 0.000000;
	 power_pf_B 0.877313;
	 current_pf_B 0.877313;
	 impedance_pf_B 0.877313;
	 power_pf_C 0.000000;
	 current_pf_C 0.000000;
	 impedance_pf_C 0.000000;
	 power_fraction_A 0.50;
	 current_fraction_A 0.10;
	 impedance_fraction_A 0.40;
	 power_fraction_B 0.50;
	 current_fraction_B 0.10;
	 impedance_fraction_B 0.40;
	 power_fraction_C 0.50;
	 current_fraction_C 0.10;
	 impedance_fraction_C 0.40;
	 nominal_voltage 7970.00;
}


object load {
	 parent 391-191257;
	 name LOAD_394-309414-0;
	 phases BN;
	 base_power_A 0.000000;
	 base_power_B 9154.076239;
	 base_power_C 0.000000;
	 power_pf_A 0.000000;
	 current_pf_A 0.000000;
	 impedance_pf_A 0.000000;
	 power_pf_B 0.877313;
	 current_pf_B 0.877313;
	 impedance_pf_B 0.877313;
	 power_pf_C 0.000000;
	 current_pf_C 0.000000;
	 impedance_pf_C 0.000000;
	 power_fraction_A 0.50;
	 current_fraction_A 0.10;
	 impedance_fraction_A 0.40;
	 power_fraction_B 0.50;
	 current_fraction_B 0.10;
	 impedance_fraction_B 0.40;
	 power_fraction_C 0.50;
	 current_fraction_C 0.10;
	 impedance_fraction_C 0.40;
	 nominal_voltage 7970.00;
}


object load {
	 parent 391-191255;
	 name LOAD_394-310942-0;
	 phases AN;
	 base_power_A 11600.235979;
	 base_power_B 0.000000;
	 base_power_C 0.000000;
	 power_pf_A 0.877313;
	 current_pf_A 0.877313;
	 impedance_pf_A 0.877313;
	 power_pf_B 0.000000;
	 current_pf_B 0.000000;
	 impedance_pf_B 0.000000;
	 power_pf_C 0.000000;
	 current_pf_C 0.000000;
	 impedance_pf_C 0.000000;
	 power_fraction_A 0.50;
	 current_fraction_A 0.10;
	 impedance_fraction_A 0.40;
	 power_fraction_B 0.50;
	 current_fraction_B 0.10;
	 impedance_fraction_B 0.40;
	 power_fraction_C 0.50;
	 current_fraction_C 0.10;
...