TUR117_glm/Node_TUR117.glm
//**Nodes forTUR117:


object node {
	 name 390-71389;
	 phases ABCN;
	 nominal_voltage 7970.00;
	 voltage_A 7970.00+0d;
	 voltage_B 7970.00-120.0d;
	 voltage_C 7970.00+120.0d;
	 bustype PQ;
}


object node {
	 name 391-1025850;
	 phases AN;
	 nominal_voltage 7970.00;
	 voltage_A 7970.00+0d;
	 bustype PQ;
}


object node {
	 name 391-1025851;
	 phases CN;
	 nominal_voltage 7970.00;
	 voltage_C 7970.00+120.0d;
	 bustype PQ;
}


object node {
	 name 391-1025852;
	 phases BN;
	 nominal_voltage 7970.00;
	 voltage_B 7970.00-120.0d;
	 bustype PQ;
}


object node {
	 name 391-1025853;
	 phases BN;
	 nominal_voltage 7970.00;
	 voltage_B 7970.00-120.0d;
	 bustype PQ;
}


object node {
	 name 391-1025854;
	 phases CN;
	 nominal_voltage 7970.00;
	 voltage_C 7970.00+120.0d;
	 bustype PQ;
}


object node {
	 name 391-1025856;
	 phases AN;
	 nominal_voltage 7970.00;
	 voltage_A 7970.00+0d;
	 bustype PQ;
}


object node {
	 name 391-1025857;
	 phases CN;
	 nominal_voltage 7970.00;
	 voltage_C 7970.00+120.0d;
	 bustype PQ;
}


object node {
	 name 391-1025858;
	 phases BN;
	 nominal_voltage 7970.00;
	 voltage_B 7970.00-120.0d;
	 bustype PQ;
}


object node {
	 name 391-1025859;
	 phases AN;
	 nominal_voltage 7970.00;
	 voltage_A 7970.00+0d;
	 bustype PQ;
}


object node {
	 name 391-1053689;
	 phases BN;
	 nominal_voltage 7970.00;
	 voltage_B 7970.00-120.0d;
	 bustype PQ;
}


object node {
	 name 391-1053693;
	 phases BN;
	 nominal_voltage 7970.00;
	 voltage_B 7970.00-120.0d;
	 bustype PQ;
}


object node {
	 name 391-1053695;
	 phases BN;
	 nominal_voltage 7970.00;
	 voltage_B 7970.00-120.0d;
	 bustype PQ;
}


object node {
	 name 391-1110671;
	 phases ABCN;
	 nominal_voltage 7970.00;
	 voltage_A 7970.00+0d;
	 voltage_B 7970.00-120.0d;
	 voltage_C 7970.00+120.0d;
	 bustype PQ;
}


object node {
	 name 391-1177556;
	 phases AN;
	 nominal_voltage 7970.00;
	 voltage_A 7970.00+0d;
	 bustype PQ;
}


object node {
	 name 391-1177557;
	 phases CN;
	 nominal_voltage 7970.00;
	 voltage_C 7970.00+120.0d;
	 bustype PQ;
}


object node {
	 name 391-1602920;
	 phases AN;
	 nominal_voltage 7970.00;
	 voltage_A 7970.00+0d;
	 bustype PQ;
}


object node {
	 name 391-1602921;
	 phases BN;
	 nominal_voltage 7970.00;
	 voltage_B 7970.00-120.0d;
	 bustype PQ;
}


object node {
	 name 391-1602922;
	 phases CN;
	 nominal_voltage 7970.00;
	 voltage_C 7970.00+120.0d;
	 bustype PQ;
}


object node {
	 name 391-1602924;
	 phases AN;
	 nominal_voltage 7970.00;
	 voltage_A 7970.00+0d;
	 bustype PQ;
}


object node {
	 name 391-1602925;
	 phases BN;
	 nominal_voltage 7970.00;
	 voltage_B 7970.00-120.0d;
	 bustype PQ;
}


object node {
	 name 391-1602926;
	 phases CN;
	 nominal_voltage 7970.00;
	 voltage_C 7970.00+120.0d;
	 bustype PQ;
}


object node {
	 name 391-1602927;
	 phases AN;
	 nominal_voltage 7970.00;
	 voltage_A 7970.00+0d;
	 bustype PQ;
}


object node {
	 name 391-1602928;
	 phases BN;
	 nominal_voltage 7970.00;
	 voltage_B 7970.00-120.0d;
	 bustype PQ;
}


object node {
	 name 391-1602929;
	 phases CN;
	 nominal_voltage 7970.00;
	 voltage_C 7970.00+120.0d;
	 bustype PQ;
}


object node {
	 name 391-1693204;
	 phases AN;
	 nominal_voltage 7970.00;
	 voltage_A 7970.00+0d;
	 bustype PQ;
}


object node {
	 name 391-1693205;
	 phases BN;
	 nominal_voltage 7970.00;
	 voltage_B 7970.00-120.0d;
	 bustype PQ;
}


object node {
	 name 391-1693206;
	 phases CN;
	 nominal_voltage 7970.00;
	 voltage_C 7970.00+120.0d;
	 bustype PQ;
}


object node {
	 name 391-1696036;
	 phases AN;
	 nominal_voltage 7970.00;
	 voltage_A 7970.00+0d;
	 bustype PQ;
}


object node {
	 name 391-1710084;
	 phases AN;
	 nominal_voltage 7970.00;
	 voltage_A 7970.00+0d;
	 bustype PQ;
}


object node {
	 name 391-1710085;
	 phases BN;
	 nominal_voltage 7970.00;
	 voltage_B 7970.00-120.0d;
	 bustype PQ;
}


object node {
	 name 391-1710086;
	 phases CN;
	 nominal_voltage 7970.00;
	 voltage_C 7970.00+120.0d;
	 bustype PQ;
}


object node {
	 name 391-1718725;
	 phases AN;
	 nominal_voltage 7970.00;
	 voltage_A 7970.00+0d;
	 bustype PQ;
}


object node {
	 name 391-1718726;
	 phases BN;
	 nominal_voltage 7970.00;
	 voltage_B 7970.00-120.0d;
	 bustype PQ;
}


object node {
	 name 391-1718727;
	 phases CN;
	 nominal_voltage 7970.00;
	 voltage_C 7970.00+120.0d;
	 bustype PQ;
}


object node {
	 name 391-190928;
	 phases BN;
	 nominal_voltage 7970.00;
	 voltage_B 7970.00-120.0d;
	 bustype PQ;
}


object node {
	 name 391-190931;
	 phases AN;
	 nominal_voltage 7970.00;
	 voltage_A 7970.00+0d;
	 bustype PQ;
}


object node {
	 name 391-191220;
	 phases CN;
	 nominal_voltage 7970.00;
	 voltage_C 7970.00+120.0d;
	 bustype PQ;
}


object node {
	 name 391-191221;
	 phases BN;
	 nominal_voltage 7970.00;
	 voltage_B 7970.00-120.0d;
	 bustype PQ;
}


object node {
	 name 391-191234;
	 phases CN;
	 nominal_voltage 7970.00;
	 voltage_C 7970.00+120.0d;
	 bustype PQ;
}


object node {
	 name 391-191235;
	 phases BN;
	 nominal_voltage 7970.00;
	 voltage_B 7970.00-120.0d;
	 bustype PQ;
}


object node {
	 name 391-191236;
	 phases AN;
	 nominal_voltage 7970.00;
	 voltage_A 7970.00+0d;
	 bustype PQ;
}


object node {
	 name 391-191240;
	 phases BN;
	 nominal_voltage 7970.00;
	 voltage_B 7970.00-120.0d;
	 bustype PQ;
}


object node {
	 name 391-191241;
	 phases AN;
	 nominal_voltage 7970.00;
	 voltage_A 7970.00+0d;
	 bustype PQ;
}


object node {
	 name 391-191242;
	 phases CN;
	 nominal_voltage 7970.00;
	 voltage_C 7970.00+120.0d;
	 bustype PQ;
}


object node {
	 name 391-191255;
	 phases AN;
	 nominal_voltage 7970.00;
	 voltage_A 7970.00+0d;
	 bustype PQ;
}


object node {
	 name 391-191256;
	 phases CN;
	 nominal_voltage 7970.00;
	 voltage_C 7970.00+120.0d;
	 bustype PQ;
}


object node {
	 name 391-191257;
	 phases BN;
	 nominal_voltage 7970.00;
	 voltage_B 7970.00-120.0d;
	 bustype PQ;
}


object node {
	 name 391-191258;
	 phases BN;
	 nominal_voltage 7970.00;
	 voltage_B 7970.00-120.0d;
	 bustype PQ;
}


object node {
	 name 391-191259;
	 phases CN;
	 nominal_voltage 7970.00;
	 voltage_C 7970.00+120.0d;
	 bustype PQ;
}


object node {
	 name 391-191260;
	 phases AN;
	 nominal_voltage 7970.00;
	 voltage_A 7970.00+0d;
	 bustype PQ;
}


object node {
	 name 391-191264;
	 phases AN;
	 nominal_voltage 7970.00;
	 voltage_A 7970.00+0d;
	 bustype PQ;
}


object node {
	 name 391-191265;
	 phases CN;
	 nominal_voltage 7970.00;
	 voltage_C 7970.00+120.0d;
	 bustype PQ;
}


object node {
	 name 391-191266;
	 phases BN;
	 nominal_voltage 7970.00;
	 voltage_B 7970.00-120.0d;
	 bustype PQ;
}


object node {
	 name 391-191267;
	 phases CN;
	 nominal_voltage 7970.00;
	 voltage_C 7970.00+120.0d;
	 bustype PQ;
}


object node {
	 name 391-191268;
	 phases BN;
	 nominal_voltage 7970.00;
	 voltage_B 7970.00-120.0d;
	 bustype PQ;
}


object node {
	 name 391-191269;
	 phases AN;
	 nominal_voltage 7970.00;
	 voltage_A 7970.00+0d;
	 bustype PQ;
}


object node {
	 name 391-191277;
	 phases BN;
	 nominal_voltage 7970.00;
	 voltage_B 7970.00-120.0d;
	 bustype PQ;
}


object node {
	 name 391-191309;
	 phases CN;
	 nominal_voltage 7970.00;
	 voltage_C 7970.00+120.0d;
	 bustype PQ;
}


object node {
	 name 391-191310;
	 phases BN;
	 nominal_voltage 7970.00;
	 voltage_B 7970.00-120.0d;
	 bustype PQ;
}


object node {
	 name 391-191311;
	 phases AN;
	 nominal_voltage 7970.00;
	 voltage_A 7970.00+0d;
	 bustype PQ;
}


object node {
	 name 391-191318;
	 phases AN;
	 nominal_voltage 7970.00;
	 voltage_A 7970.00+0d;
	 bustype PQ;
}


object node {
	 name 391-191319;
	 phases BN;
	 nominal_voltage 7970.00;
	 voltage_B 7970.00-120.0d;
	 bustype PQ;
}


object node {
	 name 391-191320;
	 phases CN;
	 nominal_voltage 7970.00;
	 voltage_C 7970.00+120.0d;
	 bustype PQ;
}


object node {
	 name 391-191327;
	 phases BN;
	 nominal_voltage 7970.00;
	 voltage_B 7970.00-120.0d;
	 bustype PQ;
}


object node {
	 name 391-191328;
	 phases AN;
	 nominal_voltage 7970.00;
	 voltage_A 7970.00+0d;
	 bustype PQ;
}


object node {
	 name 391-191329;
	 phases CN;
	 nominal_voltage 7970.00;
	 voltage_C 7970.00+120.0d;
	 bustype PQ;
}


object node {
	 name 391-191333;
	 phases CN;
	 nominal_voltage 7970.00;
	 voltage_C 7970.00+120.0d;
	 bustype PQ;
}


object node {
	 name 391-191344;
	 phases CN;
	 nominal_voltage 7970.00;
	 voltage_C 7970.00+120.0d;
	 bustype PQ;
}


object node {
	 name 391-191354;
	 phases AN;
	 nominal_voltage 7970.00;
	 voltage_A 7970.00+0d;
	 bustype PQ;
}


object node {
	 name 391-191355;
	 phases CN;
	 nominal_voltage 7970.00;
	 voltage_C 7970.00+120.0d;
	 bustype PQ;
}


object node {
	 name 391-191356;
	 phases BN;
	 nominal_voltage 7970.00;
	 voltage_B 7970.00-120.0d;
	 bustype PQ;
}


object node {
	 name 391-191357;
	 phases CN;
	 nominal_voltage 7970.00;
	 voltage_C 7970.00+120.0d;
	 bustype PQ;
}


object node {
	 name 391-191358;
	 phases AN;
	 nominal_voltage 7970.00;
	 voltage_A 7970.00+0d;
	 bustype PQ;
}


object node {
	 name 391-191359;
	 phases BN;
	 nominal_voltage 7970.00;
	 voltage_B 7970.00-120.0d;
	 bustype PQ;
}


object node {
	 name 391-191382;
	 phases BN;
	 nominal_voltage 7970.00;
	 voltage_B 7970.00-120.0d;
	 bustype PQ;
}


object node {
	 name 391-191383;
	 phases AN;
	 nominal_voltage 7970.00;
	 voltage_A 7970.00+0d;
	 bustype PQ;
}


object node {
	 name 391-191384;
	 phases CN;
	 nominal_voltage 7970.00;
	 voltage_C 7970.00+120.0d;
	 bustype PQ;
}


object node {
	 name 391-191391;
	 phases CN;
	 nominal_voltage 7970.00;
	 voltage_C 7970.00+120.0d;
	 bustype PQ;
}


object node {
	 name 391-191392;
	 phases BN;
	 nominal_voltage 7970.00;
	 voltage_B 7970.00-120.0d;
	 bustype PQ;
}


object node {
	 name 391-191393;
	 phases AN;
	 nominal_voltage 7970.00;
	 voltage_A 7970.00+0d;
	 bustype PQ;
}


object node {
	 name 391-191396;
	 phases ABCN;
	 nominal_voltage 7970.00;
	 voltage_A 7970.00+0d;
	 voltage_B 7970.00-120.0d;
	 voltage_C 7970.00+120.0d;
	 bustype PQ;
}


object node {
	 name 391-191399;
	 phases ABCN;
	 nominal_voltage 7970.00;
	 voltage_A 7970.00+0d;
	 voltage_B 7970.00-120.0d;
	 voltage_C 7970.00+120.0d;
	 bustype PQ;
}


object node {
	 name 391-191419;
	 phases AN;
	 nominal_voltage 7970.00;
	 voltage_A 7970.00+0d;
	 bustype PQ;
}


object node {
	 name 391-191434;
	 phases CN;
	 nominal_voltage 7970.00;
	 voltage_C 7970.00+120.0d;
	 bustype PQ;
}


object node {
	 name 391-191438;
	 phases AN;
	 nominal_voltage 7970.00;
	 voltage_A 7970.00+0d;
	 bustype PQ;
}


object node {
	 name 391-191458;
	 phases AN;
	 nominal_voltage 7970.00;
	 voltage_A 7970.00+0d;
	 bustype PQ;
}


object node {
	 name 391-191465;
	 phases BN;
	 nominal_voltage 7970.00;
	 voltage_B 7970.00-120.0d;
	 bustype PQ;
}


object node {
	 name 391-191469;
	 phases CN;
	 nominal_voltage 7970.00;
	 voltage_C 7970.00+120.0d;
	 bustype PQ;
}


object node {
	 name 391-191470;
	 phases BN;
	 nominal_voltage 7970.00;
	 voltage_B 7970.00-120.0d;
	 bustype PQ;
}


object node {
	 name 391-191471;
	 phases AN;
	 nominal_voltage 7970.00;
	 voltage_A 7970.00+0d;
	 bustype PQ;
}


object node {
	 name 391-191487;
	 phases BN;
	 nominal_voltage 7970.00;
	 voltage_B 7970.00-120.0d;
	 bustype PQ;
}


object node {
	 name 391-191490;
	 phases AN;
	 nominal_voltage 7970.00;
	 voltage_A 7970.00+0d;
	 bustype PQ;
}


object node {
	 name 391-191502;
	 phases AN;
	 nominal_voltage 7970.00;
	 voltage_A 7970.00+0d;
	 bustype PQ;
}


object node {
	 name 391-191503;
	 phases CN;
	 nominal_voltage 7970.00;
	 voltage_C 7970.00+120.0d;
	 bustype PQ;
}


object node {
	 name 391-191504;
	 phases BN;
	 nominal_voltage 7970.00;
	 voltage_B 7970.00-120.0d;
	 bustype PQ;
}


object node {
	 name 391-191511;
	 phases CN;
	 nominal_voltage 7970.00;
	 voltage_C 7970.00+120.0d;
	 bustype PQ;
}


object node {
	 name 391-191543;
	 phases BN;
	 nominal_voltage 7970.00;
	 voltage_B 7970.00-120.0d;
	 bustype PQ;
}


object node {
	 name 391-191549;
	 phases BN;
	 nominal_voltage 7970.00;
	 voltage_B 7970.00-120.0d;
	 bustype PQ;
}


object node {
	 name 391-191551;
	 phases BN;
	 nominal_voltage 7970.00;
	 voltage_B 7970.00-120.0d;
	 bustype PQ;
}


object node {
	 name 391-191553;
	 phases BN;
	 nominal_voltage 7970.00;
	 voltage_B 7970.00-120.0d;
	 bustype PQ;
}


object node {
	 name 391-191576;
	 phases CN;
	 nominal_voltage 7970.00;
	 voltage_C 7970.00+120.0d;
	 bustype PQ;
}


object node {
	 name 391-191578;
	 phases CN;
	 nominal_voltage 7970.00;
	 voltage_C 7970.00+120.0d;
	 bustype PQ;
}


object node {
	 name 391-191580;
	 phases CN;
	 nominal_voltage 7970.00;
	 voltage_C 7970.00+120.0d;
	 bustype PQ;
}


object node {
	 name 391-191581;
	 phases AN;
	 nominal_voltage 7970.00;
	 voltage_A 7970.00+0d;
	 bustype PQ;
}


object node {
	 name 391-191582;
	 phases BN;
	 nominal_voltage 7970.00;
	 voltage_B 7970.00-120.0d;
	 bustype PQ;
}


object node {
	 name 391-191605;
	 phases CN;
	 nominal_voltage 7970.00;
	 voltage_C 7970.00+120.0d;
	 bustype PQ;
}


object node {
	 name 391-191639;
	 phases CN;
	 nominal_voltage 7970.00;
	 voltage_C 7970.00+120.0d;
	 bustype PQ;
}


object node {
	 name 391-191676;
	 phases AN;
	 nominal_voltage 7970.00;
	 voltage_A 7970.00+0d;
	 bustype PQ;
}


object node {
	 name 391-191677;
	 phases CN;
	 nominal_voltage 7970.00;
	 voltage_C 7970.00+120.0d;
	 bustype PQ;
}


object node {
	 name 391-191678;
	 phases BN;
	 nominal_voltage 7970.00;
	 voltage_B 7970.00-120.0d;
	 bustype PQ;
}


object node {
	 name 391-191713;
	 phases CN;
	 nominal_voltage 7970.00;
	 voltage_C 7970.00+120.0d;
	 bustype PQ;
}


object node {
	 name 391-191718;
	 phases BN;
	 nominal_voltage 7970.00;
	 voltage_B 7970.00-120.0d;
	 bustype PQ;
}


object node {
	 name 391-191736;
	 phases BN;
	 nominal_voltage 7970.00;
	 voltage_B 7970.00-120.0d;
	 bustype PQ;
}


object node {
	 name 391-191743;
	 phases BN;
	 nominal_voltage 7970.00;
	 voltage_B 7970.00-120.0d;
	 bustype PQ;
}


object node {
	 name 391-191753;
	 phases AN;
	 nominal_voltage 7970.00;
	 voltage_A 7970.00+0d;
	 bustype PQ;
}


object node {
	 name 391-191754;
	 phases BN;
	 nominal_voltage 7970.00;
	 voltage_B 7970.00-120.0d;
	 bustype PQ;
}


object node {
	 name 391-191755;
	 phases CN;
	 nominal_voltage 7970.00;
	 voltage_C 7970.00+120.0d;
	 bustype PQ;
}


object node {
	 name 391-191764;
	 phases AN;
	 nominal_voltage 7970.00;
	 voltage_A 7970.00+0d;
	 bustype PQ;
}


object node {
	 name 391-196024;
	 phases CN;
	 nominal_voltage 7970.00;
	 voltage_C 7970.00+120.0d;
	 bustype PQ;
}


object node {
	 name 391-280180;
	 phases BN;
	 nominal_voltage 7970.00;
	 voltage_B 7970.00-120.0d;
	 bustype PQ;
}


object node {
	 name 391-280181;
	 phases CN;
	 nominal_voltage 7970.00;
	 voltage_C 7970.00+120.0d;
	 bustype PQ;
}


object node {
	 name 391-280182;
	 phases AN;
	 nominal_voltage 7970.00;
	 voltage_A 7970.00+0d;
	 bustype PQ;
}


object node {
	 name 391-280186;
	 phases CN;
	 nominal_voltage 7970.00;
	 voltage_C 7970.00+120.0d;
	 bustype PQ;
}


object node {
	 name 391-280187;
	 phases AN;
	 nominal_voltage 7970.00;
	 voltage_A 7970.00+0d;
	 bustype PQ;
}


object node {
	 name 391-280188;
	 phases BN;
	 nominal_voltage 7970.00;
	 voltage_B 7970.00-120.0d;
	 bustype PQ;
}


object node {
	 name 391-280192;
	 phases AN;
	 nominal_voltage 7970.00;
	 voltage_A 7970.00+0d;
	 bustype PQ;
}


object node {
	 name 391-280193;
	 phases CN;
	 nominal_voltage 7970.00;
	 voltage_C 7970.00+120.0d;
	 bustype PQ;
}


object node {
	 name 391-280194;
	 phases BN;
	 nominal_voltage 7970.00;
	 voltage_B 7970.00-120.0d;
	 bustype PQ;
}


object node {
	 name 391-280195;
	 phases CN;
	 nominal_voltage 7970.00;
	 voltage_C 7970.00+120.0d;
	 bustype PQ;
}


object node {
	 name 391-280196;
	 phases AN;
	 nominal_voltage 7970.00;
	 voltage_A 7970.00+0d;
	 bustype PQ;
}


object node {
	 name 391-280197;
	 phases BN;
	 nominal_voltage 7970.00;
	 voltage_B 7970.00-120.0d;
	 bustype PQ;
}


object node {
	 name 391-280201;
	 phases AN;
	 nominal_voltage 7970.00;
	 voltage_A 7970.00+0d;
	 bustype PQ;
}


object node {
	 name 391-280202;
	 phases CN;
	 nominal_voltage 7970.00;
	 voltage_C 7970.00+120.0d;
	 bustype PQ;
}


object node {
	 name 391-280203;
	 phases BN;
	 nominal_voltage 7970.00;
	 voltage_B 7970.00-120.0d;
	 bustype PQ;
}


object node {
	 name 391-280204;
	 phases CN;
	 nominal_voltage 7970.00;
	 voltage_C 7970.00+120.0d;
	 bustype PQ;
}


object node {
	 name 391-280205;
	 phases AN;
	 nominal_voltage 7970.00;
	 voltage_A 7970.00+0d;
	 bustype PQ;
}


object node {
	 name 391-280206;
	 phases BN;
	 nominal_voltage 7970.00;
	 voltage_B 7970.00-120.0d;
	 bustype PQ;
}


object node {
	 name 391-280207;
	 phases CN;
	 nominal_voltage 7970.00;
	 voltage_C 7970.00+120.0d;
	 bustype PQ;
}


object node {
	 name 391-280208;
	 phases AN;
	 nominal_voltage 7970.00;
	 voltage_A 7970.00+0d;
	 bustype PQ;
}


object node {
	 name 391-280209;
	 phases BN;
	 nominal_voltage 7970.00;
	 voltage_B 7970.00-120.0d;
	 bustype PQ;
}


object node {
	 name 391-280222;
	 phases AN;
	 nominal_voltage 7970.00;
	 voltage_A 7970.00+0d;
	 bustype PQ;
}


object node {
	 name 391-280223;
	 phases BN;
	 nominal_voltage 7970.00;
	 voltage_B 7970.00-120.0d;
	 bustype PQ;
}


object node {
	 name 391-280224;
	 phases CN;
	 nominal_voltage 7970.00;
	 voltage_C 7970.00+120.0d;
	 bustype PQ;
}


object node {
	 name 391-280228;
	 phases AN;
	 nominal_voltage 7970.00;
	 voltage_A 7970.00+0d;
	 bustype PQ;
}


object node {
	 name 391-280229;
	 phases CN;
	 nominal_voltage 7970.00;
	 voltage_C 7970.00+120.0d;
	 bustype PQ;
}


object node {
	 name 391-280230;
	 phases BN;
	 nominal_voltage 7970.00;
	 voltage_B 7970.00-120.0d;
	 bustype PQ;
}


object node {
	 name 391-280234;
	 phases CN;
	 nominal_voltage 7970.00;
	 voltage_C 7970.00+120.0d;
	 bustype PQ;
}


object node {
	 name 391-280235;
	 phases BN;
	 nominal_voltage 7970.00;
	 voltage_B 7970.00-120.0d;
	 bustype PQ;
}


object node {
	 name 391-280236;
	 phases AN;
	 nominal_voltage 7970.00;
	 voltage_A 7970.00+0d;
	 bustype PQ;
}


object node {
	 name 391-280246;
	 phases CN;
	 nominal_voltage 7970.00;
	 voltage_C 7970.00+120.0d;
	 bustype PQ;
}


object node {
	 name 391-280247;
	 phases BN;
	 nominal_voltage 7970.00;
	 voltage_B 7970.00-120.0d;
	 bustype PQ;
}


object node {
	 name 391-280248;
	 phases AN;
	 nominal_voltage 7970.00;
	 voltage_A 7970.00+0d;
	 bustype PQ;
}


object node {
	 name 391-280255;
	 phases AN;
	 nominal_voltage 7970.00;
	 voltage_A 7970.00+0d;
	 bustype PQ;
}


object node {
	 name 391-280256;
	 phases BN;
	 nominal_voltage 7970.00;
	 voltage_B 7970.00-120.0d;
	 bustype PQ;
}


object node {
	 name 391-280257;
	 phases CN;
	 nominal_voltage 7970.00;
	 voltage_C 7970.00+120.0d;
	 bustype PQ;
}


object node {
	 name 391-280267;
	 phases AN;
	 nominal_voltage 7970.00;
	 voltage_A 7970.00+0d;
	 bustype PQ;
}


object node {
	 name 391-280268;
	 phases BN;
	 nominal_voltage 7970.00;
	 voltage_B 7970.00-120.0d;
	 bustype PQ;
}


object node {
	 name 391-280269;
	 phases CN;
	 nominal_voltage 7970.00;
	 voltage_C 7970.00+120.0d;
	 bustype PQ;
}


object node {
	 name 391-280270;
	 phases CN;
	 nominal_voltage 7970.00;
	 voltage_C 7970.00+120.0d;
	 bustype PQ;
}


object node {
	 name 391-280271;
	 phases BN;
	 nominal_voltage 7970.00;
	 voltage_B 7970.00-120.0d;
	 bustype PQ;
}


object node {
	 name 391-280272;
	 phases AN;
	 nominal_voltage 7970.00;
	 voltage_A 7970.00+0d;
	 bustype PQ;
}


object node {
	 name 391-280273;
	 phases BN;
	 nominal_voltage 7970.00;
	 voltage_B 7970.00-120.0d;
	 bustype PQ;
}


object node {
	 name 391-280274;
	 phases AN;
	 nominal_voltage 7970.00;
	 voltage_A 7970.00+0d;
	 bustype PQ;
}


object node {
	 name 391-280275;
	 phases CN;
	 nominal_voltage 7970.00;
	 voltage_C 7970.00+120.0d;
	 bustype PQ;
}


object node {
	 name 391-280285;
	 phases AN;
	 nominal_voltage 7970.00;
	 voltage_A 7970.00+0d;
	 bustype PQ;
}


object node {
	 name 391-280286;
	 phases BN;
	 nominal_voltage 7970.00;
	 voltage_B 7970.00-120.0d;
	 bustype PQ;
}


object node {
	 name 391-280287;
	 phases CN;
	 nominal_voltage 7970.00;
	 voltage_C 7970.00+120.0d;
	 bustype PQ;
}


object node {
	 name 391-280291;
	 phases BN;
	 nominal_voltage 7970.00;
	 voltage_B 7970.00-120.0d;
	 bustype PQ;
}


object node {
	 name 391-280292;
	 phases AN;
	 nominal_voltage 7970.00;
	 voltage_A 7970.00+0d;
	 bustype PQ;
}


object node {
	 name 391-280293;
	 phases CN;
	 nominal_voltage 7970.00;
	 voltage_C 7970.00+120.0d;
	 bustype PQ;
}


object node {
	 name 391-280294;
	 phases CN;
	 nominal_voltage 7970.00;
	 voltage_C 7970.00+120.0d;
	 bustype PQ;
}


object node {
	 name 391-280295;
	 phases AN;
	 nominal_voltage 7970.00;
	 voltage_A 7970.00+0d;
	 bustype PQ;
}


object node {
	 name 391-280296;
	 phases BN;
	 nominal_voltage 7970.00;
	 voltage_B 7970.00-120.0d;
	 bustype PQ;
}


object node {
	 name 391-280306;
	 phases BN;
	 nominal_voltage 7970.00;
	 voltage_B 7970.00-120.0d;
	 bustype PQ;
}


object node {
	 name 391-280307;
	 phases CN;
	 nominal_voltage 7970.00;
	 voltage_C 7970.00+120.0d;
	 bustype PQ;
}


object node {
	 name 391-280308;
	 phases AN;
	 nominal_voltage 7970.00;
	 voltage_A 7970.00+0d;
	 bustype PQ;
}


object node {
	 name 391-280312;
	 phases BN;
	 nominal_voltage 7970.00;
	 voltage_B 7970.00-120.0d;
	 bustype PQ;
}


object node {
	 name 391-280313;
	 phases AN;
	 nominal_voltage 7970.00;
	 voltage_A 7970.00+0d;
	 bustype PQ;
}


object node {
	 name 391-280314;
	 phases CN;
	 nominal_voltage 7970.00;
	 voltage_C 7970.00+120.0d;
	 bustype PQ;
}


object node {
	 name 391-280315;
	 phases AN;
	 nominal_voltage 7970.00;
	 voltage_A 7970.00+0d;
	 bustype PQ;
}


object node {
	 name 391-280316;
	 phases BN;
	 nominal_voltage 7970.00;
	 voltage_B 7970.00-120.0d;
	 bustype PQ;
}


object node {
	 name 391-280317;
	 phases CN;
	 nominal_voltage 7970.00;
	 voltage_C 7970.00+120.0d;
	 bustype PQ;
}


object node {
	 name 391-280327;
	 phases CN;
	 nominal_voltage 7970.00;
	 voltage_C 7970.00+120.0d;
	 bustype PQ;
}


object node {
	 name 391-280328;
	 phases AN;
	 nominal_voltage 7970.00;
	 voltage_A 7970.00+0d;
	 bustype PQ;
}


object node {
	 name 391-280329;
	 phases BN;
	 nominal_voltage 7970.00;
	 voltage_B 7970.00-120.0d;
	 bustype PQ;
}


object node {
	 name 391-280330;
	 phases AN;
	 nominal_voltage 7970.00;
	 voltage_A 7970.00+0d;
	 bustype PQ;
}


object node {
	 name 391-280331;
	 phases BN;
	 nominal_voltage 7970.00;
	 voltage_B 7970.00-120.0d;
	 bustype PQ;
}


object node {
	 name 391-280332;
	 phases CN;
	 nominal_voltage 7970.00;
	 voltage_C 7970.00+120.0d;
	 bustype PQ;
}


object node {
	 name 391-280333;
	 phases AN;
	 nominal_voltage 7970.00;
	 voltage_A 7970.00+0d;
	 bustype PQ;
}


object node {
	 name 391-280334;
	 phases BN;
	 nominal_voltage 7970.00;
	 voltage_B 7970.00-120.0d;
	 bustype PQ;
}


object node {
	 name 391-280335;
	 phases CN;
	 nominal_voltage 7970.00;
	 voltage_C 7970.00+120.0d;
	 bustype PQ;
}


object node {
	 name 391-280336;
	 phases AN;
	 nominal_voltage 7970.00;
	 voltage_A 7970.00+0d;
	 bustype PQ;
}


object node {
	 name 391-280337;
	 phases CN;
	 nominal_voltage 7970.00;
	 voltage_C 7970.00+120.0d;
	 bustype PQ;
}


object node {
	 name 391-280338;
	 phases BN;
	 nominal_voltage 7970.00;
	 voltage_B 7970.00-120.0d;
	 bustype PQ;
}


object node {
	 name 391-280351;
	 phases CN;
	 nominal_voltage 7970.00;
	 voltage_C 7970.00+120.0d;
	 bustype PQ;
}


object node {
	 name 391-280352;
	 phases AN;
	 nominal_voltage 7970.00;
	 voltage_A 7970.00+0d;
	 bustype PQ;
}


object node {
	 name 391-280353;
	 phases BN;
	 nominal_voltage 7970.00;
	 voltage_B 7970.00-120.0d;
	 bustype PQ;
}


object node {
	 name 391-280363;
	 phases CN;
	 nominal_voltage 7970.00;
	 voltage_C 7970.00+120.0d;
	 bustype PQ;
}


object node {
	 name 391-280364;
	 phases BN;
	 nominal_voltage 7970.00;
	 voltage_B 7970.00-120.0d;
	 bustype PQ;
}


object node {
	 name 391-280365;
	 phases AN;
	 nominal_voltage 7970.00;
	 voltage_A 7970.00+0d;
	 bustype PQ;
}


object node {
	 name 391-280366;
	 phases CN;
	 nominal_voltage 7970.00;
	 voltage_C 7970.00+120.0d;
	 bustype PQ;
}


object node {
	 name 391-280367;
	 phases BN;
	 nominal_voltage 7970.00;
	 voltage_B 7970.00-120.0d;
	 bustype PQ;
}


object node {
	 name 391-280368;
	 phases AN;
	 nominal_voltage 7970.00;
	 voltage_A 7970.00+0d;
	 bustype PQ;
}


object node {
	 name 391-280375;
	 phases BN;
	 nominal_voltage 7970.00;
	 voltage_B 7970.00-120.0d;
	 bustype PQ;
}


object node {
	 name 391-280376;
	 phases CN;
	 nominal_voltage 7970.00;
	 voltage_C 7970.00+120.0d;
	 bustype PQ;
}


object node {
	 name 391-280377;
	 phases AN;
	 nominal_voltage 7970.00;
	 voltage_A 7970.00+0d;
	 bustype PQ;
}


object node {
	 name 391-280378;
	 phases AN;
	 nominal_voltage 7970.00;
	 voltage_A 7970.00+0d;
	 bustype PQ;
}


object node {
	 name 391-280379;
	 phases CN;
	 nominal_voltage 7970.00;
	 voltage_C 7970.00+120.0d;
	 bustype PQ;
}


object node {
	 name 391-280380;
	 phases BN;
	 nominal_voltage 7970.00;
	 voltage_B 7970.00-120.0d;
	 bustype PQ;
}


object node {
	 name 391-280381;
	 phases CN;
	 nominal_voltage 7970.00;
	 voltage_C 7970.00+120.0d;
	 bustype PQ;
}


object node {
	 name 391-280399;
	 phases CN;
	 nominal_voltage 7970.00;
	 voltage_C 7970.00+120.0d;
	 bustype PQ;
}


object node {
	 name 391-280400;
	 phases BN;
	 nominal_voltage 7970.00;
	 voltage_B 7970.00-120.0d;
	 bustype PQ;
}


object node {
	 name 391-280401;
	 phases AN;
	 nominal_voltage 7970.00;
	 voltage_A 7970.00+0d;
	 bustype PQ;
}


object node {
	 name 391-280411;
	 phases BN;
	 nominal_voltage 7970.00;
	 voltage_B 7970.00-120.0d;
	 bustype PQ;
}


object node {
	 name 391-280412;
	 phases CN;
	 nominal_voltage 7970.00;
	 voltage_C 7970.00+120.0d;
	 bustype PQ;
}


object node {
	 name 391-280413;
	 phases AN;
	 nominal_voltage 7970.00;
	 voltage_A 7970.00+0d;
	 bustype PQ;
}


object node {
	 name 391-280435;
	 phases AN;
	 nominal_voltage 7970.00;
	 voltage_A 7970.00+0d;
	 bustype PQ;
}


object node {
	 name 391-280436;
	 phases BN;
	 nominal_voltage 7970.00;
	 voltage_B 7970.00-120.0d;
	 bustype PQ;
}


object node {
	 name 391-280437;
	 phases CN;
	 nominal_voltage 7970.00;
	 voltage_C 7970.00+120.0d;
	 bustype PQ;
}


object node {
	 name 391-280450;
	 phases BN;
	 nominal_voltage 7970.00;
	 voltage_B 7970.00-120.0d;
	 bustype PQ;
}


object node {
	 name 391-280451;
	 phases AN;
	 nominal_voltage 7970.00;
	 voltage_A 7970.00+0d;
	 bustype PQ;
}


object node {
	 name 391-280452;
	 phases CN;
	 nominal_voltage 7970.00;
	 voltage_C 7970.00+120.0d;
	 bustype PQ;
}


object node {
	 name 391-280530;
	 phases AN;
	 nominal_voltage 7970.00;
	 voltage_A 7970.00+0d;
	 bustype PQ;
}


object node {
	 name 391-280537;
	 phases AN;
	 nominal_voltage 7970.00;
	 voltage_A 7970.00+0d;
	 bustype PQ;
}


object node {
	 name 391-280588;
	 phases CN;
	 nominal_voltage 7970.00;
	 voltage_C 7970.00+120.0d;
	 bustype PQ;
}


object node {
	 name 391-280589;
	 phases BN;
	 nominal_voltage 7970.00;
	 voltage_B 7970.00-120.0d;
	 bustype PQ;
}


object node {
	 name 391-280590;
	 phases AN;
	 nominal_voltage 7970.00;
	 voltage_A 7970.00+0d;
	 bustype PQ;
}


object node {
	 name 391-280591;
	 phases CN;
	 nominal_voltage 7970.00;
	 voltage_C 7970.00+120.0d;
	 bustype PQ;
}


object node {
	 name 391-280592;
	 phases AN;
	 nominal_voltage 7970.00;
	 voltage_A 7970.00+0d;
	 bustype PQ;
}


object node {
	 name 391-280593;
	 phases BN;
	 nominal_voltage 7970.00;
	 voltage_B 7970.00-120.0d;
	 bustype PQ;
}


object node {
	 name 391-280624;
	 phases AN;
	 nominal_voltage 7970.00;
	 voltage_A 7970.00+0d;
	 bustype PQ;
}


object node {
	 name 391-280636;
	 phases BN;
	 nominal_voltage 7970.00;
	 voltage_B 7970.00-120.0d;
	 bustype PQ;
}


object node {
	 name 391-280637;
	 phases CN;
	 nominal_voltage 7970.00;
	 voltage_C 7970.00+120.0d;
	 bustype PQ;
}


object node {
	 name 391-280638;
	 phases AN;
	 nominal_voltage 7970.00;
	 voltage_A 7970.00+0d;
	 bustype PQ;
}


object node {
	 name 391-280642;
	 phases BN;
	 nominal_voltage 7970.00;
	 voltage_B 7970.00-120.0d;
	 bustype PQ;
}


object node {
	 name 391-280643;
	 phases CN;
	 nominal_voltage 7970.00;
	 voltage_C 7970.00+120.0d;
	 bustype PQ;
}


object node {
	 name 391-280644;
	 phases AN;
	 nominal_voltage 7970.00;
	 voltage_A 7970.00+0d;
	 bustype PQ;
}


object node {
	 name 391-280654;
	 phases CN;
	 nominal_voltage 7970.00;
	 voltage_C 7970.00+120.0d;
	 bustype PQ;
}


object node {
	 name 391-280681;
	 phases CN;
	 nominal_voltage 7970.00;
	 voltage_C 7970.00+120.0d;
	 bustype PQ;
}


object node {
	 name 391-280682;
	 phases BN;
	 nominal_voltage 7970.00;
	 voltage_B 7970.00-120.0d;
	 bustype PQ;
}


object node {
	 name 391-280683;
...