TUR117_glm/OH_Line_Configuration_TUR117.glm
//**Overhead  Line configuration forTUR117:


object line_configuration {
	 name overhead_line_config_ABCN_104_104;
	 z11 0.406667+0.301667j;
	 z12 0.136667-0.024333j;
	 z13 0.136667-0.024333j;
	 z21 0.136667-0.024333j;
	 z22 0.406667+0.301667j;
	 z23 0.136667-0.024333j;
	 z31 0.136667-0.024333j;
	 z32 0.136667-0.024333j;
	 z33 0.406667+0.301667j;
	 }

object line_configuration {
	 name overhead_line_config_ABCN_10_10;
	 z11 0.393000+0.273000j;
	 z12 0.121000-0.030000j;
	 z13 0.121000-0.030000j;
	 z21 0.121000-0.030000j;
	 z22 0.393000+0.273000j;
	 z23 0.121000-0.030000j;
	 z31 0.121000-0.030000j;
	 z32 0.121000-0.030000j;
	 z33 0.393000+0.273000j;
	 }

object line_configuration {
	 name overhead_line_config_ABCN_39_39;
	 z11 1.003000+1.353933j;
	 z12 0.160000+0.506033j;
	 z13 0.160000+0.506033j;
	 z21 0.160000+0.506033j;
	 z22 1.003000+1.353933j;
	 z23 0.160000+0.506033j;
	 z31 0.160000+0.506033j;
	 z32 0.160000+0.506033j;
	 z33 1.003000+1.353933j;
	 }

object line_configuration {
	 name overhead_line_config_ABCN_39_90;
	 z11 0.345667+1.151733j;
	 z12 0.159667+0.506133j;
	 z13 0.159667+0.506133j;
	 z21 0.159667+0.506133j;
	 z22 0.345667+1.151733j;
	 z23 0.159667+0.506133j;
	 z31 0.159667+0.506133j;
	 z32 0.159667+0.506133j;
	 z33 0.345667+1.151733j;
	 }

object line_configuration {
	 name overhead_line_config_ABCN_48_39;
	 z11 1.003000+1.353933j;
	 z12 0.160000+0.506033j;
	 z13 0.160000+0.506033j;
	 z21 0.160000+0.506033j;
	 z22 1.003000+1.353933j;
	 z23 0.160000+0.506033j;
	 z31 0.160000+0.506033j;
	 z32 0.160000+0.506033j;
	 z33 1.003000+1.353933j;
	 }

object line_configuration {
	 name overhead_line_config_ABCN_54_90;
	 z11 0.345667+1.151733j;
	 z12 0.159667+0.506133j;
	 z13 0.159667+0.506133j;
	 z21 0.159667+0.506133j;
	 z22 0.345667+1.151733j;
	 z23 0.159667+0.506133j;
	 z31 0.159667+0.506133j;
	 z32 0.159667+0.506133j;
	 z33 0.345667+1.151733j;
	 }

object line_configuration {
	 name overhead_line_config_ABCN_73_90;
	 z11 0.345667+1.151733j;
	 z12 0.159667+0.506133j;
	 z13 0.159667+0.506133j;
	 z21 0.159667+0.506133j;
	 z22 0.345667+1.151733j;
	 z23 0.159667+0.506133j;
	 z31 0.159667+0.506133j;
	 z32 0.159667+0.506133j;
	 z33 0.345667+1.151733j;
	 }

object line_configuration {
	 name overhead_line_config_ABCN_79_79;
	 z11 2.660000+1.500000j;
	 z12 0.201000+0.637500j;
	 z13 0.201000+0.637500j;
	 z21 0.201000+0.637500j;
	 z22 2.660000+1.500000j;
	 z23 0.201000+0.637500j;
	 z31 0.201000+0.637500j;
	 z32 0.201000+0.637500j;
	 z33 2.660000+1.500000j;
	 }

object line_configuration {
	 name overhead_line_config_ABCN_90_90;
	 z11 0.345667+1.151733j;
	 z12 0.159667+0.506133j;
	 z13 0.159667+0.506133j;
	 z21 0.159667+0.506133j;
	 z22 0.345667+1.151733j;
	 z23 0.159667+0.506133j;
	 z31 0.159667+0.506133j;
	 z32 0.159667+0.506133j;
	 z33 0.345667+1.151733j;
	 }

object line_configuration {
	 name overhead_line_config_ACN_79_79;
	 z11 2.660000+1.500000j;
	 z12 0.201000+0.637500j;
	 z13 0.201000+0.637500j;
	 z21 0.201000+0.637500j;
	 z22 2.660000+1.500000j;
	 z23 0.201000+0.637500j;
	 z31 0.201000+0.637500j;
	 z32 0.201000+0.637500j;
	 z33 2.660000+1.500000j;
	 }

object line_configuration {
	 name overhead_line_config_AN_79_79;
	 z11 2.660000+1.500000j;
	 z12 0.201000+0.637500j;
	 z13 0.201000+0.637500j;
	 z21 0.201000+0.637500j;
	 z22 2.660000+1.500000j;
	 z23 0.201000+0.637500j;
	 z31 0.201000+0.637500j;
	 z32 0.201000+0.637500j;
	 z33 2.660000+1.500000j;
	 }

object line_configuration {
	 name overhead_line_config_AN_97_97;
	 z11 2.618000+1.481733j;
	 z12 0.201000+0.637633j;
	 z13 0.201000+0.637633j;
	 z21 0.201000+0.637633j;
	 z22 2.618000+1.481733j;
	 z23 0.201000+0.637633j;
	 z31 0.201000+0.637633j;
	 z32 0.201000+0.637633j;
	 z33 2.618000+1.481733j;
	 }

object line_configuration {
	 name overhead_line_config_BN_79_79;
	 z11 2.660000+1.500000j;
	 z12 0.201000+0.637500j;
	 z13 0.201000+0.637500j;
	 z21 0.201000+0.637500j;
	 z22 2.660000+1.500000j;
	 z23 0.201000+0.637500j;
	 z31 0.201000+0.637500j;
	 z32 0.201000+0.637500j;
	 z33 2.660000+1.500000j;
	 }

