TUR117_glm/output_voltage.csv
# output_voltage.csv run at 2019-05-03 14:27:49 PDT on 723 nodes
node_name,voltA_mag,voltA_angle,voltB_mag,voltB_angle,voltC_mag,voltC_angle
Cap_393-73970,7649.903097,-0.005456,7655.298589,4.182712,7615.692664,2.090020
Cap_393-70114,7654.101238,-0.004833,7659.998773,4.183273,7620.791846,2.090639
Large_customer_389-1197724-0,7648.062829,-0.005637,0.000000,0.000000,0.000000,0.000000
LOAD_389-1196856-0,7648.031586,-0.005628,0.000000,0.000000,0.000000,0.000000
LOAD_389-1197080-0,7651.581809,-0.004992,0.000000,0.000000,0.000000,0.000000
LOAD_389-1197084-0,7651.082284,-0.005258,7656.963861,4.182899,7617.428939,2.090255
LOAD_389-1197384-0,7668.322229,-0.002363,7672.719512,4.186386,7628.255528,2.092860
LOAD_389-1197386-0,7668.273546,-0.002367,0.000000,0.000000,7628.199659,2.092862
LOAD_389-1197389-0,7661.169976,-0.003768,7667.803395,4.184924,7624.732791,2.091933
LOAD_389-1197392-0,7651.257331,-0.004993,0.000000,0.000000,0.000000,0.000000
LOAD_389-1197721-0,7649.903097,-0.005456,7655.298589,4.182712,7615.692664,2.090020
LOAD_389-1197721-1,7648.219715,-0.005620,7653.109476,4.182554,7613.469560,2.089813
LOAD_389-2160789-0,7668.817906,-0.002370,7673.048709,4.186377,7628.740228,2.092848
LOAD_389-2985217-1,7656.361137,-0.004389,7661.751374,4.183675,7622.776969,2.090976
LOAD_389-2985217-4,7653.602204,-0.004902,7659.610767,4.183216,7620.323463,2.090591
LOAD_389-2993393-0,7652.969623,-0.004990,7659.119003,4.183144,7619.729449,2.090529
LOAD_389-2993393-1,7652.393479,-0.005072,7658.463689,4.183065,7619.068805,2.090447
LOAD_389-2993393-2,7651.671638,-0.005180,7657.694089,4.182972,7618.193810,2.090343
LOAD_389-554121-0,7651.539205,-0.004992,0.000000,0.000000,0.000000,0.000000
LOAD_389-554130-0,7651.049444,-0.005176,7657.576930,4.182972,7617.993087,2.090359
LOAD_389-554149-0,7651.473787,-0.004993,0.000000,0.000000,0.000000,0.000000
LOAD_389-554155-0,7652.119973,-0.004991,0.000000,0.000000,0.000000,0.000000
LOAD_389-554158-0,7668.414822,-0.002365,7672.812144,4.186384,7628.348212,2.092858
LOAD_389-554167-0,7672.974927,-0.001583,7675.844177,4.187180,7630.951144,2.093363
LOAD_389-554462-0,0.000000,0.000000,7663.355567,4.184086,0.000000,0.000000
LOAD_389-554462-1,0.000000,0.000000,7663.295165,4.184086,0.000000,0.000000
LOAD_389-3054115-1,7647.827808,-0.005652,7652.502946,4.182527,7612.760956,2.089743
LOAD_389-3054115-2,7647.905846,-0.005656,7652.479405,4.182537,7612.621326,2.089725
LOAD_389-3054115-3,7647.905846,-0.005656,7652.479405,4.182537,7612.621326,2.089725
LOAD_394-494640-0,7607.779713,-0.005416,0.000000,0.000000,0.000000,0.000000
LOAD_394-494642-0,0.000000,0.000000,7613.653753,4.182707,0.000000,0.000000
LOAD_394-494644-0,0.000000,0.000000,0.000000,0.000000,7574.977174,2.089925
LOAD_394-494658-0,0.000000,0.000000,0.000000,0.000000,7574.992584,2.089925
LOAD_394-1044256-0,7630.789643,-0.005351,0.000000,0.000000,0.000000,0.000000
LOAD_394-1044273-0,7633.921535,-0.005288,0.000000,0.000000,0.000000,0.000000
LOAD_394-1044287-0,7642.497562,-0.005176,0.000000,0.000000,0.000000,0.000000
LOAD_394-1051927-0,0.000000,0.000000,0.000000,0.000000,7605.101577,2.089778
LOAD_394-1095798-0,7607.756610,-0.005416,0.000000,0.000000,0.000000,0.000000
LOAD_394-1095800-0,0.000000,0.000000,0.000000,0.000000,7574.956792,2.089925
LOAD_394-1095802-0,0.000000,0.000000,7613.633955,4.182707,0.000000,0.000000
LOAD_394-1095807-0,0.000000,0.000000,7613.635431,4.182707,0.000000,0.000000
LOAD_394-1095814-0,7607.737031,-0.005415,0.000000,0.000000,0.000000,0.000000
LOAD_394-1095816-0,0.000000,0.000000,7613.612713,4.182708,0.000000,0.000000
LOAD_394-1095834-0,0.000000,0.000000,0.000000,0.000000,7574.934871,2.089925
LOAD_394-1096400-0,7607.716227,-0.005415,0.000000,0.000000,0.000000,0.000000
LOAD_394-1096402-0,0.000000,0.000000,0.000000,0.000000,7574.915813,2.089925
LOAD_394-1096404-0,0.000000,0.000000,7613.593956,4.182708,0.000000,0.000000
LOAD_394-1224721-0,0.000000,0.000000,0.000000,0.000000,7596.433697,2.089968
LOAD_394-1400714-0,0.000000,0.000000,0.000000,0.000000,7563.048612,2.089972
LOAD_394-1400716-0,0.000000,0.000000,7601.670759,4.182755,0.000000,0.000000
LOAD_394-1400719-0,7595.722698,-0.005368,0.000000,0.000000,0.000000,0.000000
LOAD_394-1491930-0,7595.677532,-0.005367,0.000000,0.000000,0.000000,0.000000
LOAD_394-1491931-0,0.000000,0.000000,7601.627661,4.182755,0.000000,0.000000
LOAD_394-1491932-0,0.000000,0.000000,0.000000,0.000000,7563.002629,2.089973
LOAD_394-1582480-0,7658.596486,-0.003897,0.000000,0.000000,0.000000,0.000000
LOAD_394-1582488-0,7654.260642,-0.004117,0.000000,0.000000,0.000000,0.000000
LOAD_394-1595301-0,0.000000,0.000000,7655.339035,4.183475,0.000000,0.000000
LOAD_394-1613964-0,7655.906538,-0.004038,0.000000,0.000000,0.000000,0.000000
LOAD_394-1613967-0,7654.260642,-0.004117,0.000000,0.000000,0.000000,0.000000
LOAD_394-1614003-0,0.000000,0.000000,0.000000,0.000000,7617.144488,2.090640
LOAD_394-1614180-0,0.000000,0.000000,7651.088911,4.183144,0.000000,0.000000
LOAD_394-1650322-0,7590.809027,-0.005336,0.000000,0.000000,0.000000,0.000000
LOAD_394-1650323-0,0.000000,0.000000,7596.616472,4.182788,0.000000,0.000000
LOAD_394-1650324-0,0.000000,0.000000,0.000000,0.000000,7558.080769,2.090004
LOAD_394-1650379-0,7591.235006,-0.005341,0.000000,0.000000,0.000000,0.000000
LOAD_394-1650381-0,0.000000,0.000000,0.000000,0.000000,7558.500376,2.090000
LOAD_394-1650383-0,0.000000,0.000000,7597.080324,4.182783,0.000000,0.000000
LOAD_394-1692254-0,0.000000,0.000000,7654.934648,4.183480,0.000000,0.000000
LOAD_394-1697704-0,0.000000,0.000000,0.000000,0.000000,7622.602874,2.091959
LOAD_394-1697708-0,7657.028968,-0.003880,0.000000,0.000000,0.000000,0.000000
LOAD_394-1718506-0,0.000000,0.000000,7655.285939,4.183476,0.000000,0.000000
LOAD_394-1771383-0,7626.828695,-0.005548,7632.978487,4.182573,7593.494936,2.089794
LOAD_394-1859318-0,7650.617553,-0.005168,0.000000,0.000000,0.000000,0.000000
LOAD_394-1859319-0,0.000000,0.000000,0.000000,0.000000,7617.832775,2.090362
LOAD_394-1936250-0,7625.923855,-0.005477,0.000000,0.000000,0.000000,0.000000
LOAD_394-2207528-0,7627.376676,-0.005314,0.000000,0.000000,0.000000,0.000000
LOAD_394-2207530-0,0.000000,0.000000,7633.601799,4.182768,0.000000,0.000000
LOAD_394-2207532-0,0.000000,0.000000,0.000000,0.000000,7594.221499,2.089993
LOAD_394-2251562-0,7608.313271,-0.005417,0.000000,0.000000,0.000000,0.000000
LOAD_394-2251564-0,0.000000,0.000000,0.000000,0.000000,7575.593455,2.089923
LOAD_394-2251566-0,0.000000,0.000000,7614.342285,4.182705,0.000000,0.000000
LOAD_394-2336684-0,7628.491492,-0.005398,0.000000,0.000000,0.000000,0.000000
LOAD_394-2415076-0,0.000000,0.000000,7658.324764,4.183065,0.000000,0.000000
LOAD_394-2460858-0,7603.066080,-0.005397,0.000000,0.000000,0.000000,0.000000
LOAD_394-2475226-0,7603.053743,-0.005397,0.000000,0.000000,0.000000,0.000000
LOAD_394-2475227-0,0.000000,0.000000,7608.842215,4.182726,0.000000,0.000000
LOAD_394-2475228-0,0.000000,0.000000,0.000000,0.000000,7570.193945,2.089944
LOAD_394-2484900-0,7630.672120,-0.005350,0.000000,0.000000,0.000000,0.000000
LOAD_394-2484902-0,0.000000,0.000000,0.000000,0.000000,7597.514495,2.089956
LOAD_394-2484904-0,0.000000,0.000000,7636.893213,4.182731,0.000000,0.000000
LOAD_394-2507050-0,7630.700271,-0.005350,0.000000,0.000000,0.000000,0.000000
LOAD_394-2507052-0,0.000000,0.000000,0.000000,0.000000,7597.539407,2.089956
LOAD_394-2507054-0,0.000000,0.000000,7636.916062,4.182731,0.000000,0.000000
LOAD_394-309414-0,0.000000,0.000000,7666.053483,4.184943,0.000000,0.000000
LOAD_394-310942-0,7657.533895,-0.003886,0.000000,0.000000,0.000000,0.000000
LOAD_394-310944-0,0.000000,0.000000,7660.122060,4.183383,0.000000,0.000000
LOAD_394-310948-0,0.000000,0.000000,0.000000,0.000000,7623.312437,2.091952
LOAD_394-311266-0,0.000000,0.000000,0.000000,0.000000,7622.877287,2.091956
LOAD_394-311268-0,0.000000,0.000000,7665.727765,4.184946,0.000000,0.000000
LOAD_394-311290-0,0.000000,0.000000,0.000000,0.000000,7617.819807,2.090363
LOAD_394-311304-0,7650.633898,-0.005168,0.000000,0.000000,0.000000,0.000000
LOAD_394-311306-0,0.000000,0.000000,7657.175407,4.182980,0.000000,0.000000
LOAD_394-311308-0,0.000000,0.000000,0.000000,0.000000,7617.731323,2.090365
LOAD_394-312541-0,0.000000,0.000000,7649.093972,4.182585,0.000000,0.000000
LOAD_394-314160-0,7641.349897,-0.005516,0.000000,0.000000,0.000000,0.000000
LOAD_394-314162-0,0.000000,0.000000,7646.014612,4.182613,0.000000,0.000000
LOAD_394-314164-0,0.000000,0.000000,0.000000,0.000000,7605.913557,2.089822
LOAD_394-314168-0,0.000000,0.000000,7646.017838,4.182613,0.000000,0.000000
LOAD_394-314170-0,0.000000,0.000000,0.000000,0.000000,7605.923614,2.089822
LOAD_394-314184-0,0.000000,0.000000,0.000000,0.000000,7604.293809,2.089774
LOAD_394-314186-0,0.000000,0.000000,0.000000,0.000000,7603.491598,2.089783
LOAD_394-314224-0,7643.812913,-0.005602,0.000000,0.000000,0.000000,0.000000
LOAD_394-315219-0,0.000000,0.000000,0.000000,0.000000,7612.055777,2.089733
LOAD_394-324734-0,0.000000,0.000000,7656.888943,4.182897,0.000000,0.000000
LOAD_394-324736-0,0.000000,0.000000,0.000000,0.000000,7617.350016,2.090253
LOAD_394-325338-0,7651.009695,-0.005260,0.000000,0.000000,0.000000,0.000000
LOAD_394-325352-0,7654.648553,-0.004702,0.000000,0.000000,0.000000,0.000000
LOAD_394-325402-0,0.000000,0.000000,7660.157861,4.183383,0.000000,0.000000
LOAD_394-325404-0,0.000000,0.000000,0.000000,0.000000,7621.151534,2.090735
LOAD_394-325406-0,0.000000,0.000000,7660.165605,4.183383,0.000000,0.000000
LOAD_394-325408-0,0.000000,0.000000,7657.144499,4.182981,0.000000,0.000000
LOAD_394-328570-0,0.000000,0.000000,0.000000,0.000000,7612.058550,2.089733
LOAD_394-328577-0,7641.342627,-0.005516,0.000000,0.000000,0.000000,0.000000
LOAD_394-441288-0,0.000000,0.000000,0.000000,0.000000,7579.428235,2.089908
LOAD_394-441321-0,7618.077651,-0.005454,0.000000,0.000000,0.000000,0.000000
LOAD_394-441499-0,0.000000,0.000000,7624.092647,4.182668,0.000000,0.000000
LOAD_394-441501-0,0.000000,0.000000,0.000000,0.000000,7584.746958,2.089888
LOAD_394-441513-0,0.000000,0.000000,7624.084874,4.182668,0.000000,0.000000
LOAD_394-441543-0,7612.773971,-0.005435,0.000000,0.000000,0.000000,0.000000
LOAD_394-441545-0,0.000000,0.000000,7618.753587,4.182688,0.000000,0.000000
LOAD_394-441818-0,7612.789483,-0.005435,0.000000,0.000000,0.000000,0.000000
LOAD_394-441820-0,0.000000,0.000000,7618.770978,4.182688,0.000000,0.000000
LOAD_394-441822-0,0.000000,0.000000,0.000000,0.000000,7579.441418,2.089908
LOAD_394-441832-0,7612.789991,-0.005435,0.000000,0.000000,0.000000,0.000000
LOAD_394-441834-0,0.000000,0.000000,7618.787561,4.182688,0.000000,0.000000
LOAD_394-441836-0,0.000000,0.000000,0.000000,0.000000,7579.457357,2.089908
LOAD_394-441838-0,7612.767244,-0.005435,0.000000,0.000000,0.000000,0.000000
LOAD_394-441840-0,0.000000,0.000000,7618.760711,4.182688,0.000000,0.000000
LOAD_394-441842-0,0.000000,0.000000,0.000000,0.000000,7579.432471,2.089908
LOAD_394-441870-0,7607.805160,-0.005416,0.000000,0.000000,0.000000,0.000000
LOAD_394-441872-0,0.000000,0.000000,7613.678675,4.182707,0.000000,0.000000
LOAD_394-441874-0,0.000000,0.000000,0.000000,0.000000,7575.000572,2.089925
LOAD_394-476079-0,7596.207402,-0.005371,0.000000,0.000000,0.000000,0.000000
LOAD_394-476099-0,7595.939661,-0.005370,0.000000,0.000000,0.000000,0.000000
LOAD_394-641514-0,7641.435554,-0.005517,0.000000,0.000000,0.000000,0.000000
LOAD_394-811131-0,0.000000,0.000000,0.000000,0.000000,7584.863331,2.089887
LOAD_394-811132-0,7618.178685,-0.005456,0.000000,0.000000,0.000000,0.000000
LOAD_394-811134-0,0.000000,0.000000,0.000000,0.000000,7579.475913,2.089907
LOAD_394-811243-0,7607.794502,-0.005416,0.000000,0.000000,0.000000,0.000000
LOAD_394-812026-0,7596.162056,-0.005369,0.000000,0.000000,0.000000,0.000000
LOAD_394-812028-0,0.000000,0.000000,0.000000,0.000000,7563.475117,2.089972
LOAD_394-812030-0,0.000000,0.000000,7602.097939,4.182754,0.000000,0.000000
LOAD_394-813183-0,0.000000,0.000000,0.000000,0.000000,7604.302883,2.089774
LOAD_394-813185-0,0.000000,0.000000,7645.742625,4.182578,0.000000,0.000000
LOAD_394-813192-0,0.000000,0.000000,0.000000,0.000000,7602.853568,2.089796
LOAD_394-813484-0,0.000000,0.000000,7665.976982,4.184944,0.000000,0.000000
LOAD_394-813485-0,7657.505288,-0.003885,0.000000,0.000000,0.000000,0.000000
LOAD_394-819918-0,7592.427630,-0.005354,0.000000,0.000000,0.000000,0.000000
LOAD_394-819920-0,0.000000,0.000000,0.000000,0.000000,7559.684154,2.089987
LOAD_394-819922-0,0.000000,0.000000,7598.312345,4.182769,0.000000,0.000000
LOAD_394-819924-0,7591.951813,-0.005349,0.000000,0.000000,0.000000,0.000000
LOAD_394-819926-0,0.000000,0.000000,0.000000,0.000000,7559.073169,2.089993
LOAD_394-819928-0,0.000000,0.000000,7597.774678,4.182775,0.000000,0.000000
LOAD_394-819956-0,7607.784414,-0.005416,0.000000,0.000000,0.000000,0.000000
LOAD_394-995900-0,7599.527126,-0.005384,0.000000,0.000000,0.000000,0.000000
LOAD_394-995919-0,7599.500478,-0.005384,0.000000,0.000000,0.000000,0.000000
LOAD_394-995920-0,0.000000,0.000000,7605.510603,4.182739,0.000000,0.000000
LOAD_394-995921-0,0.000000,0.000000,0.000000,0.000000,7566.742938,2.089957
LOAD_411-2003001-0,7650.983528,-0.005260,0.000000,0.000000,0.000000,0.000000
LOAD_411-2003002-0,0.000000,0.000000,7656.869262,4.182897,0.000000,0.000000
LOAD_411-2003003-0,0.000000,0.000000,0.000000,0.000000,7617.334444,2.090253
LOAD_411-2063440-0,7651.170799,-0.004992,0.000000,0.000000,0.000000,0.000000
LOAD_411-2063445-0,0.000000,0.000000,0.000000,0.000000,7612.099254,2.089732
LOAD_411-255229-0,0.000000,0.000000,7663.258673,4.184087,0.000000,0.000000
LOAD_411-692031-0,0.000000,0.000000,7650.897711,4.182563,0.000000,0.000000
390-71389,7665.955968,-0.002892,7671.085164,4.185834,7627.240772,2.092506
391-1025850,7591.333880,-0.005342,0.000000,0.000000,0.000000,0.000000
391-1025851,0.000000,0.000000,0.000000,0.000000,7558.584133,2.089999
391-1025852,0.000000,0.000000,7597.164991,4.182782,0.000000,0.000000
391-1025853,0.000000,0.000000,7597.080324,4.182783,0.000000,0.000000
391-1025854,0.000000,0.000000,0.000000,0.000000,7558.500376,2.090000
391-1025856,7591.235006,-0.005341,0.000000,0.000000,0.000000,0.000000
391-1025857,0.000000,0.000000,0.000000,0.000000,7558.080769,2.090004
391-1025858,0.000000,0.000000,7596.616472,4.182788,0.000000,0.000000
391-1025859,7590.809027,-0.005336,0.000000,0.000000,0.000000,0.000000
391-1053689,0.000000,0.000000,7655.055157,4.183478,0.000000,0.000000
391-1053693,0.000000,0.000000,7655.314585,4.183475,0.000000,0.000000
391-1053695,0.000000,0.000000,7654.934648,4.183480,0.000000,0.000000
391-1110671,7626.828695,-0.005548,7632.978487,4.182573,7593.494936,2.089794
391-1177556,7650.617553,-0.005168,0.000000,0.000000,0.000000,0.000000
391-1177557,0.000000,0.000000,0.000000,0.000000,7617.832775,2.090362
391-1602920,7650.983528,-0.005260,0.000000,0.000000,0.000000,0.000000
391-1602921,0.000000,0.000000,7656.869262,4.182897,0.000000,0.000000
391-1602922,0.000000,0.000000,0.000000,0.000000,7617.334444,2.090253
391-1602924,7630.711664,-0.005350,0.000000,0.000000,0.000000,0.000000
391-1602925,0.000000,0.000000,7636.927002,4.182731,0.000000,0.000000
391-1602926,0.000000,0.000000,0.000000,0.000000,7597.550816,2.089956
391-1602927,7630.672120,-0.005350,0.000000,0.000000,0.000000,0.000000
391-1602928,0.000000,0.000000,7636.893213,4.182731,0.000000,0.000000
391-1602929,0.000000,0.000000,0.000000,0.000000,7597.514495,2.089956
391-1693204,7603.066080,-0.005397,0.000000,0.000000,0.000000,0.000000
391-1693205,0.000000,0.000000,7608.853396,4.182726,0.000000,0.000000
391-1693206,0.000000,0.000000,0.000000,0.000000,7570.205694,2.089943
391-1696036,7603.066080,-0.005397,0.000000,0.000000,0.000000,0.000000
391-1710084,7603.053743,-0.005397,0.000000,0.000000,0.000000,0.000000
391-1710085,0.000000,0.000000,7608.842215,4.182726,0.000000,0.000000
391-1710086,0.000000,0.000000,0.000000,0.000000,7570.193945,2.089944
391-1718725,7630.700271,-0.005350,0.000000,0.000000,0.000000,0.000000
391-1718726,0.000000,0.000000,7636.916062,4.182731,0.000000,0.000000
391-1718727,0.000000,0.000000,0.000000,0.000000,7597.539407,2.089956
391-190928,0.000000,0.000000,7658.428481,4.183064,0.000000,0.000000
391-190931,7644.598331,-0.005603,0.000000,0.000000,0.000000,0.000000
391-191220,0.000000,0.000000,0.000000,0.000000,7608.353733,2.089742
391-191221,0.000000,0.000000,7649.040498,4.182550,0.000000,0.000000
391-191234,0.000000,0.000000,0.000000,0.000000,7617.746603,2.090364
391-191235,0.000000,0.000000,7657.191612,4.182980,0.000000,0.000000
391-191236,7650.639728,-0.005168,0.000000,0.000000,0.000000,0.000000
391-191240,0.000000,0.000000,7660.359821,4.183379,0.000000,0.000000
391-191241,7654.725473,-0.004704,0.000000,0.000000,0.000000,0.000000
391-191242,0.000000,0.000000,0.000000,0.000000,7621.347824,2.090731
391-191255,7657.533895,-0.003886,0.000000,0.000000,0.000000,0.000000
391-191256,0.000000,0.000000,0.000000,0.000000,7623.312437,2.091952
391-191257,0.000000,0.000000,7666.053483,4.184943,0.000000,0.000000
391-191258,0.000000,0.000000,7656.895309,4.182897,0.000000,0.000000
391-191259,0.000000,0.000000,0.000000,0.000000,7617.357825,2.090253
391-191260,7651.016392,-0.005261,0.000000,0.000000,0.000000,0.000000
391-191264,7650.682568,-0.005169,0.000000,0.000000,0.000000,0.000000
391-191265,0.000000,0.000000,0.000000,0.000000,7617.836846,2.090362
391-191266,0.000000,0.000000,7657.400028,4.182975,0.000000,0.000000
391-191267,0.000000,0.000000,0.000000,0.000000,7622.877287,2.091956
391-191268,0.000000,0.000000,7665.727765,4.184946,0.000000,0.000000
391-191269,7657.310060,-0.003883,0.000000,0.000000,0.000000,0.000000
391-191277,0.000000,0.000000,7650.639748,4.182568,0.000000,0.000000
391-191309,0.000000,0.000000,0.000000,0.000000,7605.999813,2.089821
391-191310,0.000000,0.000000,7646.099678,4.182613,0.000000,0.000000
391-191311,7641.435554,-0.005517,0.000000,0.000000,0.000000,0.000000
391-191318,7657.028968,-0.003880,0.000000,0.000000,0.000000,0.000000
391-191319,0.000000,0.000000,7665.727765,4.184946,0.000000,0.000000
391-191320,0.000000,0.000000,0.000000,0.000000,7622.602874,2.091959
391-191327,0.000000,0.000000,7660.178490,4.183382,0.000000,0.000000
391-191328,7654.667939,-0.004702,0.000000,0.000000,0.000000,0.000000
391-191329,0.000000,0.000000,0.000000,0.000000,7621.209531,2.090734
391-191333,0.000000,0.000000,0.000000,0.000000,7607.784526,2.089749
391-191344,0.000000,0.000000,0.000000,0.000000,7612.099254,2.089732
391-191354,7658.596486,-0.003897,0.000000,0.000000,0.000000,0.000000
391-191355,0.000000,0.000000,0.000000,0.000000,7624.290644,2.091941
391-191356,0.000000,0.000000,7667.413947,4.184928,0.000000,0.000000
391-191357,0.000000,0.000000,0.000000,0.000000,7606.722192,2.089747
391-191358,7644.280670,-0.005602,0.000000,0.000000,0.000000,0.000000
391-191359,0.000000,0.000000,7647.901961,4.182554,0.000000,0.000000
391-191382,0.000000,0.000000,7646.099678,4.182613,0.000000,0.000000
391-191383,7641.435554,-0.005517,0.000000,0.000000,0.000000,0.000000
391-191384,0.000000,0.000000,0.000000,0.000000,7605.999813,2.089821
391-191391,0.000000,0.000000,0.000000,0.000000,7605.999813,2.089821
391-191392,0.000000,0.000000,7646.099678,4.182613,0.000000,0.000000
391-191393,7641.435554,-0.005517,0.000000,0.000000,0.000000,0.000000
391-191396,7644.598724,-0.005603,7649.038083,4.182550,7608.550878,2.089741
391-191399,7641.587501,-0.005517,7646.257230,4.182612,7606.153907,2.089821
391-191419,7658.596486,-0.003897,0.000000,0.000000,0.000000,0.000000
391-191434,0.000000,0.000000,0.000000,0.000000,7602.853568,2.089796
391-191438,7641.435554,-0.005517,0.000000,0.000000,0.000000,0.000000
391-191458,7657.505288,-0.003885,0.000000,0.000000,0.000000,0.000000
391-191465,0.000000,0.000000,7650.897711,4.182563,0.000000,0.000000
391-191469,0.000000,0.000000,0.000000,0.000000,7621.151534,2.090735
391-191470,0.000000,0.000000,7660.157861,4.183383,0.000000,0.000000
391-191471,7654.648553,-0.004702,0.000000,0.000000,0.000000,0.000000
391-191487,0.000000,0.000000,7660.165605,4.183383,0.000000,0.000000
391-191490,7651.170799,-0.004992,0.000000,0.000000,0.000000,0.000000
391-191502,7650.633898,-0.005168,0.000000,0.000000,0.000000,0.000000
391-191503,0.000000,0.000000,0.000000,0.000000,7617.731323,2.090365
391-191504,0.000000,0.000000,7657.175407,4.182980,0.000000,0.000000
391-191511,0.000000,0.000000,0.000000,0.000000,7604.293809,2.089774
391-191543,0.000000,0.000000,7658.324764,4.183065,0.000000,0.000000
391-191549,0.000000,0.000000,7645.742625,4.182578,0.000000,0.000000
391-191551,0.000000,0.000000,7663.258673,4.184087,0.000000,0.000000
391-191553,0.000000,0.000000,7660.122060,4.183383,0.000000,0.000000
391-191576,0.000000,0.000000,0.000000,0.000000,7612.055777,2.089733
391-191578,0.000000,0.000000,0.000000,0.000000,7617.819807,2.090363
391-191580,0.000000,0.000000,0.000000,0.000000,7605.913557,2.089822
391-191581,7641.349897,-0.005516,0.000000,0.000000,0.000000,0.000000
391-191582,0.000000,0.000000,7646.014612,4.182613,0.000000,0.000000
391-191605,0.000000,0.000000,0.000000,0.000000,7605.101577,2.089778
391-191639,0.000000,0.000000,0.000000,0.000000,7603.491598,2.089783
391-191676,7641.342627,-0.005516,0.000000,0.000000,0.000000,0.000000
391-191677,0.000000,0.000000,0.000000,0.000000,7605.923614,2.089822
391-191678,0.000000,0.000000,7646.017838,4.182613,0.000000,0.000000
391-191713,0.000000,0.000000,0.000000,0.000000,7604.302883,2.089774
391-191718,0.000000,0.000000,7649.093972,4.182585,0.000000,0.000000
391-191736,0.000000,0.000000,7657.144499,4.182981,0.000000,0.000000
391-191743,0.000000,0.000000,7665.976982,4.184944,0.000000,0.000000
391-191753,7651.009695,-0.005260,0.000000,0.000000,0.000000,0.000000
391-191754,0.000000,0.000000,7656.888943,4.182897,0.000000,0.000000
391-191755,0.000000,0.000000,0.000000,0.000000,7617.350016,2.090253
391-191764,7643.812913,-0.005602,0.000000,0.000000,0.000000,0.000000
391-196024,0.000000,0.000000,0.000000,0.000000,7612.058550,2.089733
391-280180,0.000000,0.000000,7613.659807,4.182707,0.000000,0.000000
391-280181,0.000000,0.000000,0.000000,0.000000,7574.984443,2.089925
391-280182,7607.784414,-0.005416,0.000000,0.000000,0.000000,0.000000
391-280186,0.000000,0.000000,0.000000,0.000000,7574.984443,2.089925
391-280187,7607.784414,-0.005416,0.000000,0.000000,0.000000,0.000000
391-280188,0.000000,0.000000,7613.659807,4.182707,0.000000,0.000000
391-280192,7595.939661,-0.005370,0.000000,0.000000,0.000000,0.000000
391-280193,0.000000,0.000000,0.000000,0.000000,7563.271122,2.089970
391-280194,0.000000,0.000000,7601.882391,4.182753,0.000000,0.000000
391-280195,0.000000,0.000000,0.000000,0.000000,7574.984443,2.089925
391-280196,7607.784414,-0.005416,0.000000,0.000000,0.000000,0.000000
391-280197,0.000000,0.000000,7613.659807,4.182707,0.000000,0.000000
391-280201,7626.902186,-0.005540,0.000000,0.000000,0.000000,0.000000
391-280202,0.000000,0.000000,0.000000,0.000000,7593.644759,2.089799
391-280203,0.000000,0.000000,7633.115874,4.182578,0.000000,0.000000
391-280204,0.000000,0.000000,0.000000,0.000000,7563.663402,2.089968
391-280205,7596.330572,-0.005372,0.000000,0.000000,0.000000,0.000000
391-280206,0.000000,0.000000,7602.272927,4.182751,0.000000,0.000000
391-280207,0.000000,0.000000,0.000000,0.000000,7560.062156,2.089982
391-280208,7592.766679,-0.005358,0.000000,0.000000,0.000000,0.000000
391-280209,0.000000,0.000000,7598.678264,4.182765,0.000000,0.000000
391-280222,7618.196360,-0.005456,0.000000,0.000000,0.000000,0.000000
391-280223,0.000000,0.000000,7624.206671,4.182667,0.000000,0.000000
391-280224,0.000000,0.000000,0.000000,0.000000,7584.863331,2.089887
391-280228,7596.330572,-0.005372,0.000000,0.000000,0.000000,0.000000
391-280229,0.000000,0.000000,0.000000,0.000000,7563.663402,2.089968
391-280230,0.000000,0.000000,7602.272927,4.182751,0.000000,0.000000
391-280234,0.000000,0.000000,0.000000,0.000000,7574.992584,2.089925
391-280235,0.000000,0.000000,7613.668579,4.182707,0.000000,0.000000
391-280236,7607.794502,-0.005416,0.000000,0.000000,0.000000,0.000000
391-280246,0.000000,0.000000,0.000000,0.000000,7575.650340,2.089922
391-280247,0.000000,0.000000,7614.396786,4.182704,0.000000,0.000000
391-280248,7608.368958,-0.005418,0.000000,0.000000,0.000000,0.000000
391-280255,7599.527126,-0.005384,0.000000,0.000000,0.000000,0.000000
391-280256,0.000000,0.000000,7605.532487,4.182739,0.000000,0.000000
391-280257,0.000000,0.000000,0.000000,0.000000,7566.769282,2.089956
391-280267,7596.070490,-0.005371,0.000000,0.000000,0.000000,0.000000
391-280268,0.000000,0.000000,7602.016055,4.182752,0.000000,0.000000
391-280269,0.000000,0.000000,0.000000,0.000000,7563.409723,2.089969
391-280270,0.000000,0.000000,0.000000,0.000000,7563.547306,2.089969
391-280271,0.000000,0.000000,7602.158971,4.182752,0.000000,0.000000
391-280272,7596.207402,-0.005371,0.000000,0.000000,0.000000,0.000000
391-280273,0.000000,0.000000,7613.659807,4.182707,0.000000,0.000000
391-280274,7607.784414,-0.005416,0.000000,0.000000,0.000000,0.000000
391-280275,0.000000,0.000000,0.000000,0.000000,7574.984443,2.089925
391-280285,7618.193965,-0.005456,0.000000,0.000000,0.000000,0.000000
391-280286,0.000000,0.000000,7624.181392,4.182667,0.000000,0.000000
391-280287,0.000000,0.000000,0.000000,0.000000,7584.863331,2.089887
391-280291,0.000000,0.000000,7634.090492,4.182610,0.000000,0.000000
391-280292,7627.318310,-0.005493,0.000000,0.000000,0.000000,0.000000
391-280293,0.000000,0.000000,0.000000,0.000000,7594.683633,2.089834
391-280294,0.000000,0.000000,0.000000,0.000000,7563.436871,2.089969
391-280295,7596.094788,-0.005371,0.000000,0.000000,0.000000,0.000000
391-280296,0.000000,0.000000,7602.045416,4.182752,0.000000,0.000000
391-280306,0.000000,0.000000,7602.554270,4.182750,0.000000,0.000000
391-280307,0.000000,0.000000,0.000000,0.000000,7563.946392,2.089967
391-280308,7596.606358,-0.005373,0.000000,0.000000,0.000000,0.000000
391-280312,0.000000,0.000000,7602.449267,4.182750,0.000000,0.000000
391-280313,7596.510930,-0.005372,0.000000,0.000000,0.000000,0.000000
391-280314,0.000000,0.000000,0.000000,0.000000,7563.836579,2.089968
391-280315,7612.859834,-0.005435,0.000000,0.000000,0.000000,0.000000
391-280316,0.000000,0.000000,7618.845444,4.182687,0.000000,0.000000
391-280317,0.000000,0.000000,0.000000,0.000000,7579.514020,2.089907
391-280327,0.000000,0.000000,0.000000,0.000000,7559.684154,2.089987
391-280328,7592.427630,-0.005354,0.000000,0.000000,0.000000,0.000000
391-280329,0.000000,0.000000,7598.312345,4.182769,0.000000,0.000000
391-280330,7607.794502,-0.005416,0.000000,0.000000,0.000000,0.000000
391-280331,0.000000,0.000000,7613.668579,4.182707,0.000000,0.000000
391-280332,0.000000,0.000000,0.000000,0.000000,7574.992584,2.089925
391-280333,7607.758186,-0.005416,0.000000,0.000000,0.000000,0.000000
391-280334,0.000000,0.000000,7613.635431,4.182707,0.000000,0.000000
391-280335,0.000000,0.000000,0.000000,0.000000,7574.958383,2.089925
391-280336,7607.820591,-0.005416,0.000000,0.000000,0.000000,0.000000
391-280337,0.000000,0.000000,0.000000,0.000000,7575.018105,2.089924
391-280338,0.000000,0.000000,7613.694388,4.182707,0.000000,0.000000
391-280351,0.000000,0.000000,0.000000,0.000000,7570.258685,2.089943
391-280352,7603.113919,-0.005398,0.000000,0.000000,0.000000,0.000000
391-280353,0.000000,0.000000,7608.901728,4.182726,0.000000,0.000000
391-280363,0.000000,0.000000,0.000000,0.000000,7575.003210,2.089925
391-280364,0.000000,0.000000,7613.680495,4.182707,0.000000,0.000000
...
MID-395-1456561,7626.828695,-0.005548,7632.978487,4.182573,7593.494936,2.089794
MID-395-1456881,7641.556894,-0.005518,7646.229375,4.182611,7606.129427,2.089820
MID-395-1525092,7626.798221,-0.005550,7632.946248,4.182571,7593.464118,2.089792
MID-395-1525098,7626.829520,-0.005548,7632.983621,4.182573,7593.501843,2.089794
MID-395-1800910,7644.598331,-0.005603,7649.040498,4.182550,7608.541514,2.089740
MID-395-277251,7641.585709,-0.005517,7646.255438,4.182612,7606.152112,2.089821
MID-395-277275,7644.566027,-0.005603,7649.006471,4.182549,7608.527475,2.089741
MID-395-277286,7644.598065,-0.005603,7649.033723,4.182550,7608.539198,2.089740
MID-395-926293,7641.587203,-0.005516,7646.255265,4.182613,7606.156779,2.089822
TUR117,7970.000000,0.000000,7970.000000,4.188790,7970.000000,2.094395
Breaker_392-82614,7654.100032,-0.004833,7659.997771,4.183273,7620.790922,2.090639
Breaker_392-88054,7647.827966,-0.005652,7652.502868,4.182527,7612.760754,2.089743
Breaker_392-93494,7647.905846,-0.005656,7652.479405,4.182537,7612.621326,2.089725
Breaker_416-69801,7969.996460,0.000001,7969.996845,4.188791,7969.997161,2.094396
Fuse_402-1262950,7648.199905,-0.005627,0.000000,0.000000,0.000000,0.000000
Fuse_402-1339159,7651.034545,-0.005260,7656.916057,4.182897,7617.381138,2.090253
Fuse_402-1390342,7647.724613,-0.005659,7652.365375,4.182520,7612.602171,2.089729
Fuse_402-1397702,7651.871191,-0.004992,0.000000,0.000000,0.000000,0.000000
Fuse_402-1397704,7651.620123,-0.005180,7657.684364,4.182972,7618.177189,2.090345
Fuse_402-1397705,7647.905846,-0.005656,7652.479405,4.182537,7612.621246,2.089725
Fuse_402-1397706,7652.393479,-0.005072,7658.463659,4.183065,7619.068805,2.090447
Fuse_402-158806,0.000000,0.000000,7663.709275,4.184086,0.000000,0.000000
Fuse_402-158808,7668.817851,-0.002370,7673.048673,4.186377,7628.740178,2.092848
Fuse_402-158810,7661.168734,-0.003768,7667.803297,4.184924,7624.732707,2.091933
Fuse_402-158814,7654.731214,-0.004704,7660.435565,4.183379,7621.370620,2.090731
Fuse_402-158821,0.000000,0.000000,7663.355538,4.184086,0.000000,0.000000
Fuse_402-158825,7651.671563,-0.005180,7657.694062,4.182972,7618.193785,2.090343
Fuse_402-158826,7652.969484,-0.004990,0.000000,0.000000,0.000000,0.000000
Fuse_402-167773,7651.021700,-0.005260,7656.903195,4.182897,7617.368277,2.090253
Fuse_402-462222,7648.162907,-0.005623,7653.003220,4.182548,7613.387080,2.089803
Fuse_402-463500,7648.219245,-0.005620,7653.109476,4.182554,7613.469560,2.089813
Fuse_402-700342,7656.360572,-0.004388,7661.749953,4.183676,7622.775686,2.090976
Reg_TUR117,7681.914371,0.000001,7681.915403,4.188791,7635.917553,2.094396
SW_416-69801,7681.725640,-0.000031,7681.786768,4.188758,7635.812962,2.094375
